*SPICE netlist created from BLIF module mips by blif2BSpice
.include /usr/local/share/qflow/tech/osu035/osu035_stdcells.sp
.subckt mips vdd gnd clk rst MemData[0] MemData[1] MemData[2] MemData[3] MemData[4] MemData[5] MemData[6] MemData[7] MemData[8] MemData[9] MemData[10] MemData[11] MemData[12] MemData[13] MemData[14] MemData[15] MemData[16] MemData[17] MemData[18] MemData[19] MemData[20] MemData[21] MemData[22] MemData[23] MemData[24] MemData[25] MemData[26] MemData[27] MemData[28] MemData[29] MemData[30] MemData[31] MemWrite MemRead MemWriteData[0] MemWriteData[1] MemWriteData[2] MemWriteData[3] MemWriteData[4] MemWriteData[5] MemWriteData[6] MemWriteData[7] MemWriteData[8] MemWriteData[9] MemWriteData[10] MemWriteData[11] MemWriteData[12] MemWriteData[13] MemWriteData[14] MemWriteData[15] MemWriteData[16] MemWriteData[17] MemWriteData[18] MemWriteData[19] MemWriteData[20] MemWriteData[21] MemWriteData[22] MemWriteData[23] MemWriteData[24] MemWriteData[25] MemWriteData[26] MemWriteData[27] MemWriteData[28] MemWriteData[29] MemWriteData[30] MemWriteData[31] MemAddr[0] MemAddr[1] MemAddr[2] MemAddr[3] MemAddr[4] MemAddr[5] MemAddr[6] MemAddr[7] MemAddr[8] MemAddr[9] MemAddr[10] MemAddr[11] MemAddr[12] MemAddr[13] MemAddr[14] MemAddr[15] MemAddr[16] MemAddr[17] MemAddr[18] MemAddr[19] MemAddr[20] MemAddr[21] MemAddr[22] MemAddr[23] MemAddr[24] MemAddr[25] MemAddr[26] MemAddr[27] MemAddr[28] MemAddr[29] MemAddr[30] MemAddr[31] 
XBUFX2_1 vdd gnd datapath_1.Instr[23_bF$buf10] datapath_1.Instr[23_bF$buf10_bF$buf3] BUFX2
XBUFX2_2 vdd gnd datapath_1.Instr[23_bF$buf10] datapath_1.Instr[23_bF$buf10_bF$buf2] BUFX2
XBUFX2_3 vdd gnd datapath_1.Instr[23_bF$buf10] datapath_1.Instr[23_bF$buf10_bF$buf1] BUFX2
XBUFX2_4 vdd gnd datapath_1.Instr[23_bF$buf10] datapath_1.Instr[23_bF$buf10_bF$buf0] BUFX2
XBUFX2_5 vdd gnd datapath_1.Instr[17] datapath_1.Instr[17]_hier0_bF$buf6 BUFX2
XBUFX2_6 vdd gnd datapath_1.Instr[17] datapath_1.Instr[17]_hier0_bF$buf5 BUFX2
XBUFX2_7 vdd gnd datapath_1.Instr[17] datapath_1.Instr[17]_hier0_bF$buf4 BUFX2
XBUFX2_8 vdd gnd datapath_1.Instr[17] datapath_1.Instr[17]_hier0_bF$buf3 BUFX2
XBUFX2_9 vdd gnd datapath_1.Instr[17] datapath_1.Instr[17]_hier0_bF$buf2 BUFX2
XBUFX2_10 vdd gnd datapath_1.Instr[17] datapath_1.Instr[17]_hier0_bF$buf1 BUFX2
XBUFX2_11 vdd gnd datapath_1.Instr[17] datapath_1.Instr[17]_hier0_bF$buf0 BUFX2
XBUFX2_12 vdd gnd clk clk_hier0_bF$buf9 BUFX2
XBUFX2_13 vdd gnd clk clk_hier0_bF$buf8 BUFX2
XBUFX2_14 vdd gnd clk clk_hier0_bF$buf7 BUFX2
XBUFX2_15 vdd gnd clk clk_hier0_bF$buf6 BUFX2
XBUFX2_16 vdd gnd clk clk_hier0_bF$buf5 BUFX2
XBUFX2_17 vdd gnd clk clk_hier0_bF$buf4 BUFX2
XBUFX2_18 vdd gnd clk clk_hier0_bF$buf3 BUFX2
XBUFX2_19 vdd gnd clk clk_hier0_bF$buf2 BUFX2
XBUFX2_20 vdd gnd clk clk_hier0_bF$buf1 BUFX2
XBUFX2_21 vdd gnd clk clk_hier0_bF$buf0 BUFX2
XBUFX2_22 vdd gnd datapath_1.Instr[23_bF$buf9] datapath_1.Instr[23_bF$buf9_bF$buf3] BUFX2
XBUFX2_23 vdd gnd datapath_1.Instr[23_bF$buf9] datapath_1.Instr[23_bF$buf9_bF$buf2] BUFX2
XBUFX2_24 vdd gnd datapath_1.Instr[23_bF$buf9] datapath_1.Instr[23_bF$buf9_bF$buf1] BUFX2
XBUFX2_25 vdd gnd datapath_1.Instr[23_bF$buf9] datapath_1.Instr[23_bF$buf9_bF$buf0] BUFX2
XBUFX2_26 vdd gnd datapath_1.Instr[23_bF$buf6] datapath_1.Instr[23_bF$buf6_bF$buf3] BUFX2
XBUFX2_27 vdd gnd datapath_1.Instr[23_bF$buf6] datapath_1.Instr[23_bF$buf6_bF$buf2] BUFX2
XBUFX2_28 vdd gnd datapath_1.Instr[23_bF$buf6] datapath_1.Instr[23_bF$buf6_bF$buf1] BUFX2
XBUFX2_29 vdd gnd datapath_1.Instr[23_bF$buf6] datapath_1.Instr[23_bF$buf6_bF$buf0] BUFX2
XBUFX2_30 vdd gnd datapath_1.Instr[23_bF$buf3] datapath_1.Instr[23_bF$buf3_bF$buf3] BUFX2
XBUFX2_31 vdd gnd datapath_1.Instr[23_bF$buf3] datapath_1.Instr[23_bF$buf3_bF$buf2] BUFX2
XBUFX2_32 vdd gnd datapath_1.Instr[23_bF$buf3] datapath_1.Instr[23_bF$buf3_bF$buf1] BUFX2
XBUFX2_33 vdd gnd datapath_1.Instr[23_bF$buf3] datapath_1.Instr[23_bF$buf3_bF$buf0] BUFX2
XBUFX2_34 vdd gnd datapath_1.Instr[23_bF$buf15] datapath_1.Instr[23_bF$buf15_bF$buf3] BUFX2
XBUFX2_35 vdd gnd datapath_1.Instr[23_bF$buf15] datapath_1.Instr[23_bF$buf15_bF$buf2] BUFX2
XBUFX2_36 vdd gnd datapath_1.Instr[23_bF$buf15] datapath_1.Instr[23_bF$buf15_bF$buf1] BUFX2
XBUFX2_37 vdd gnd datapath_1.Instr[23_bF$buf15] datapath_1.Instr[23_bF$buf15_bF$buf0] BUFX2
XBUFX2_38 vdd gnd datapath_1.Instr[23_bF$buf12] datapath_1.Instr[23_bF$buf12_bF$buf3] BUFX2
XBUFX2_39 vdd gnd datapath_1.Instr[23_bF$buf12] datapath_1.Instr[23_bF$buf12_bF$buf2] BUFX2
XBUFX2_40 vdd gnd datapath_1.Instr[23_bF$buf12] datapath_1.Instr[23_bF$buf12_bF$buf1] BUFX2
XBUFX2_41 vdd gnd datapath_1.Instr[23_bF$buf12] datapath_1.Instr[23_bF$buf12_bF$buf0] BUFX2
XBUFX2_42 vdd gnd datapath_1.Instr[22] datapath_1.Instr[22]_hier0_bF$buf6 BUFX2
XBUFX2_43 vdd gnd datapath_1.Instr[22] datapath_1.Instr[22]_hier0_bF$buf5 BUFX2
XBUFX2_44 vdd gnd datapath_1.Instr[22] datapath_1.Instr[22]_hier0_bF$buf4 BUFX2
XBUFX2_45 vdd gnd datapath_1.Instr[22] datapath_1.Instr[22]_hier0_bF$buf3 BUFX2
XBUFX2_46 vdd gnd datapath_1.Instr[22] datapath_1.Instr[22]_hier0_bF$buf2 BUFX2
XBUFX2_47 vdd gnd datapath_1.Instr[22] datapath_1.Instr[22]_hier0_bF$buf1 BUFX2
XBUFX2_48 vdd gnd datapath_1.Instr[22] datapath_1.Instr[22]_hier0_bF$buf0 BUFX2
XBUFX2_49 vdd gnd datapath_1.Instr[16] datapath_1.Instr[16]_hier0_bF$buf6 BUFX2
XBUFX2_50 vdd gnd datapath_1.Instr[16] datapath_1.Instr[16]_hier0_bF$buf5 BUFX2
XBUFX2_51 vdd gnd datapath_1.Instr[16] datapath_1.Instr[16]_hier0_bF$buf4 BUFX2
XBUFX2_52 vdd gnd datapath_1.Instr[16] datapath_1.Instr[16]_hier0_bF$buf3 BUFX2
XBUFX2_53 vdd gnd datapath_1.Instr[16] datapath_1.Instr[16]_hier0_bF$buf2 BUFX2
XBUFX2_54 vdd gnd datapath_1.Instr[16] datapath_1.Instr[16]_hier0_bF$buf1 BUFX2
XBUFX2_55 vdd gnd datapath_1.Instr[16] datapath_1.Instr[16]_hier0_bF$buf0 BUFX2
XBUFX2_56 vdd gnd _5265_ _5265__hier0_bF$buf8 BUFX2
XBUFX2_57 vdd gnd _5265_ _5265__hier0_bF$buf7 BUFX2
XBUFX2_58 vdd gnd _5265_ _5265__hier0_bF$buf6 BUFX2
XBUFX2_59 vdd gnd _5265_ _5265__hier0_bF$buf5 BUFX2
XBUFX2_60 vdd gnd _5265_ _5265__hier0_bF$buf4 BUFX2
XBUFX2_61 vdd gnd _5265_ _5265__hier0_bF$buf3 BUFX2
XBUFX2_62 vdd gnd _5265_ _5265__hier0_bF$buf2 BUFX2
XBUFX2_63 vdd gnd _5265_ _5265__hier0_bF$buf1 BUFX2
XBUFX2_64 vdd gnd _5265_ _5265__hier0_bF$buf0 BUFX2
XBUFX2_65 vdd gnd _1890_ _1890__hier0_bF$buf5 BUFX2
XBUFX2_66 vdd gnd _1890_ _1890__hier0_bF$buf4 BUFX2
XBUFX2_67 vdd gnd _1890_ _1890__hier0_bF$buf3 BUFX2
XBUFX2_68 vdd gnd _1890_ _1890__hier0_bF$buf2 BUFX2
XBUFX2_69 vdd gnd _1890_ _1890__hier0_bF$buf1 BUFX2
XBUFX2_70 vdd gnd _1890_ _1890__hier0_bF$buf0 BUFX2
XBUFX2_71 vdd gnd datapath_1.Instr[23_bF$buf8] datapath_1.Instr[23_bF$buf8_bF$buf3] BUFX2
XBUFX2_72 vdd gnd datapath_1.Instr[23_bF$buf8] datapath_1.Instr[23_bF$buf8_bF$buf2] BUFX2
XBUFX2_73 vdd gnd datapath_1.Instr[23_bF$buf8] datapath_1.Instr[23_bF$buf8_bF$buf1] BUFX2
XBUFX2_74 vdd gnd datapath_1.Instr[23_bF$buf8] datapath_1.Instr[23_bF$buf8_bF$buf0] BUFX2
XBUFX2_75 vdd gnd datapath_1.Instr[23_bF$buf5] datapath_1.Instr[23_bF$buf5_bF$buf3] BUFX2
XBUFX2_76 vdd gnd datapath_1.Instr[23_bF$buf5] datapath_1.Instr[23_bF$buf5_bF$buf2] BUFX2
XBUFX2_77 vdd gnd datapath_1.Instr[23_bF$buf5] datapath_1.Instr[23_bF$buf5_bF$buf1] BUFX2
XBUFX2_78 vdd gnd datapath_1.Instr[23_bF$buf5] datapath_1.Instr[23_bF$buf5_bF$buf0] BUFX2
XBUFX2_79 vdd gnd datapath_1.Instr[23_bF$buf2] datapath_1.Instr[23_bF$buf2_bF$buf3] BUFX2
XBUFX2_80 vdd gnd datapath_1.Instr[23_bF$buf2] datapath_1.Instr[23_bF$buf2_bF$buf2] BUFX2
XBUFX2_81 vdd gnd datapath_1.Instr[23_bF$buf2] datapath_1.Instr[23_bF$buf2_bF$buf1] BUFX2
XBUFX2_82 vdd gnd datapath_1.Instr[23_bF$buf2] datapath_1.Instr[23_bF$buf2_bF$buf0] BUFX2
XBUFX2_83 vdd gnd datapath_1.Instr[23_bF$buf14] datapath_1.Instr[23_bF$buf14_bF$buf3] BUFX2
XBUFX2_84 vdd gnd datapath_1.Instr[23_bF$buf14] datapath_1.Instr[23_bF$buf14_bF$buf2] BUFX2
XBUFX2_85 vdd gnd datapath_1.Instr[23_bF$buf14] datapath_1.Instr[23_bF$buf14_bF$buf1] BUFX2
XBUFX2_86 vdd gnd datapath_1.Instr[23_bF$buf14] datapath_1.Instr[23_bF$buf14_bF$buf0] BUFX2
XBUFX2_87 vdd gnd datapath_1.Instr[23_bF$buf11] datapath_1.Instr[23_bF$buf11_bF$buf3] BUFX2
XBUFX2_88 vdd gnd datapath_1.Instr[23_bF$buf11] datapath_1.Instr[23_bF$buf11_bF$buf2] BUFX2
XBUFX2_89 vdd gnd datapath_1.Instr[23_bF$buf11] datapath_1.Instr[23_bF$buf11_bF$buf1] BUFX2
XBUFX2_90 vdd gnd datapath_1.Instr[23_bF$buf11] datapath_1.Instr[23_bF$buf11_bF$buf0] BUFX2
XBUFX2_91 vdd gnd datapath_1.Instr[21] datapath_1.Instr[21]_hier0_bF$buf6 BUFX2
XBUFX2_92 vdd gnd datapath_1.Instr[21] datapath_1.Instr[21]_hier0_bF$buf5 BUFX2
XBUFX2_93 vdd gnd datapath_1.Instr[21] datapath_1.Instr[21]_hier0_bF$buf4 BUFX2
XBUFX2_94 vdd gnd datapath_1.Instr[21] datapath_1.Instr[21]_hier0_bF$buf3 BUFX2
XBUFX2_95 vdd gnd datapath_1.Instr[21] datapath_1.Instr[21]_hier0_bF$buf2 BUFX2
XBUFX2_96 vdd gnd datapath_1.Instr[21] datapath_1.Instr[21]_hier0_bF$buf1 BUFX2
XBUFX2_97 vdd gnd datapath_1.Instr[21] datapath_1.Instr[21]_hier0_bF$buf0 BUFX2
XBUFX2_98 vdd gnd datapath_1.Instr[18] datapath_1.Instr[18]_hier0_bF$buf5 BUFX2
XBUFX2_99 vdd gnd datapath_1.Instr[18] datapath_1.Instr[18]_hier0_bF$buf4 BUFX2
XBUFX2_100 vdd gnd datapath_1.Instr[18] datapath_1.Instr[18]_hier0_bF$buf3 BUFX2
XBUFX2_101 vdd gnd datapath_1.Instr[18] datapath_1.Instr[18]_hier0_bF$buf2 BUFX2
XBUFX2_102 vdd gnd datapath_1.Instr[18] datapath_1.Instr[18]_hier0_bF$buf1 BUFX2
XBUFX2_103 vdd gnd datapath_1.Instr[18] datapath_1.Instr[18]_hier0_bF$buf0 BUFX2
XBUFX2_104 vdd gnd _3588_ _3588__hier0_bF$buf5 BUFX2
XBUFX2_105 vdd gnd _3588_ _3588__hier0_bF$buf4 BUFX2
XBUFX2_106 vdd gnd _3588_ _3588__hier0_bF$buf3 BUFX2
XBUFX2_107 vdd gnd _3588_ _3588__hier0_bF$buf2 BUFX2
XBUFX2_108 vdd gnd _3588_ _3588__hier0_bF$buf1 BUFX2
XBUFX2_109 vdd gnd _3588_ _3588__hier0_bF$buf0 BUFX2
XBUFX2_110 vdd gnd datapath_1.Instr[23_bF$buf7] datapath_1.Instr[23_bF$buf7_bF$buf3] BUFX2
XBUFX2_111 vdd gnd datapath_1.Instr[23_bF$buf7] datapath_1.Instr[23_bF$buf7_bF$buf2] BUFX2
XBUFX2_112 vdd gnd datapath_1.Instr[23_bF$buf7] datapath_1.Instr[23_bF$buf7_bF$buf1] BUFX2
XBUFX2_113 vdd gnd datapath_1.Instr[23_bF$buf7] datapath_1.Instr[23_bF$buf7_bF$buf0] BUFX2
XBUFX2_114 vdd gnd datapath_1.Instr[23_bF$buf4] datapath_1.Instr[23_bF$buf4_bF$buf3] BUFX2
XBUFX2_115 vdd gnd datapath_1.Instr[23_bF$buf4] datapath_1.Instr[23_bF$buf4_bF$buf2] BUFX2
XBUFX2_116 vdd gnd datapath_1.Instr[23_bF$buf4] datapath_1.Instr[23_bF$buf4_bF$buf1] BUFX2
XBUFX2_117 vdd gnd datapath_1.Instr[23_bF$buf4] datapath_1.Instr[23_bF$buf4_bF$buf0] BUFX2
XBUFX2_118 vdd gnd datapath_1.Instr[23_bF$buf13] datapath_1.Instr[23_bF$buf13_bF$buf3] BUFX2
XBUFX2_119 vdd gnd datapath_1.Instr[23_bF$buf13] datapath_1.Instr[23_bF$buf13_bF$buf2] BUFX2
XBUFX2_120 vdd gnd datapath_1.Instr[23_bF$buf13] datapath_1.Instr[23_bF$buf13_bF$buf1] BUFX2
XBUFX2_121 vdd gnd datapath_1.Instr[23_bF$buf13] datapath_1.Instr[23_bF$buf13_bF$buf0] BUFX2
XBUFX2_122 vdd gnd _5278_ _5278__bF$buf4 BUFX2
XBUFX2_123 vdd gnd _5278_ _5278__bF$buf3 BUFX2
XBUFX2_124 vdd gnd _5278_ _5278__bF$buf2 BUFX2
XBUFX2_125 vdd gnd _5278_ _5278__bF$buf1 BUFX2
XBUFX2_126 vdd gnd _5278_ _5278__bF$buf0 BUFX2
XBUFX2_127 vdd gnd _5334_ _5334__bF$buf4 BUFX2
XBUFX2_128 vdd gnd _5334_ _5334__bF$buf3 BUFX2
XBUFX2_129 vdd gnd _5334_ _5334__bF$buf2 BUFX2
XBUFX2_130 vdd gnd _5334_ _5334__bF$buf1 BUFX2
XBUFX2_131 vdd gnd _5334_ _5334__bF$buf0 BUFX2
XBUFX2_132 vdd gnd _5275_ _5275__bF$buf7 BUFX2
XBUFX2_133 vdd gnd _5275_ _5275__bF$buf6 BUFX2
XBUFX2_134 vdd gnd _5275_ _5275__bF$buf5 BUFX2
XBUFX2_135 vdd gnd _5275_ _5275__bF$buf4 BUFX2
XBUFX2_136 vdd gnd _5275_ _5275__bF$buf3 BUFX2
XBUFX2_137 vdd gnd _5275_ _5275__bF$buf2 BUFX2
XBUFX2_138 vdd gnd _5275_ _5275__bF$buf1 BUFX2
XBUFX2_139 vdd gnd _5275_ _5275__bF$buf0 BUFX2
XBUFX2_140 vdd gnd _3570_ _3570__bF$buf4 BUFX2
XBUFX2_141 vdd gnd _3570_ _3570__bF$buf3 BUFX2
XBUFX2_142 vdd gnd _3570_ _3570__bF$buf2 BUFX2
XBUFX2_143 vdd gnd _3570_ _3570__bF$buf1 BUFX2
XBUFX2_144 vdd gnd _3570_ _3570__bF$buf0 BUFX2
XBUFX2_145 vdd gnd datapath_1.Instr[23] datapath_1.Instr[23_bF$buf15] BUFX2
XBUFX2_146 vdd gnd datapath_1.Instr[23] datapath_1.Instr[23_bF$buf14] BUFX2
XBUFX2_147 vdd gnd datapath_1.Instr[23] datapath_1.Instr[23_bF$buf13] BUFX2
XBUFX2_148 vdd gnd datapath_1.Instr[23] datapath_1.Instr[23_bF$buf12] BUFX2
XBUFX2_149 vdd gnd datapath_1.Instr[23] datapath_1.Instr[23_bF$buf11] BUFX2
XBUFX2_150 vdd gnd datapath_1.Instr[23] datapath_1.Instr[23_bF$buf10] BUFX2
XBUFX2_151 vdd gnd datapath_1.Instr[23] datapath_1.Instr[23_bF$buf9] BUFX2
XBUFX2_152 vdd gnd datapath_1.Instr[23] datapath_1.Instr[23_bF$buf8] BUFX2
XBUFX2_153 vdd gnd datapath_1.Instr[23] datapath_1.Instr[23_bF$buf7] BUFX2
XBUFX2_154 vdd gnd datapath_1.Instr[23] datapath_1.Instr[23_bF$buf6] BUFX2
XBUFX2_155 vdd gnd datapath_1.Instr[23] datapath_1.Instr[23_bF$buf5] BUFX2
XBUFX2_156 vdd gnd datapath_1.Instr[23] datapath_1.Instr[23_bF$buf4] BUFX2
XBUFX2_157 vdd gnd datapath_1.Instr[23] datapath_1.Instr[23_bF$buf3] BUFX2
XBUFX2_158 vdd gnd datapath_1.Instr[23] datapath_1.Instr[23_bF$buf2] BUFX2
XBUFX2_159 vdd gnd datapath_1.Instr[23] datapath_1.Instr[23_bF$buf1] BUFX2
XBUFX2_160 vdd gnd datapath_1.Instr[23] datapath_1.Instr[23_bF$buf0] BUFX2
XBUFX2_161 vdd gnd _3567_ _3567__bF$buf10 BUFX2
XBUFX2_162 vdd gnd _3567_ _3567__bF$buf9 BUFX2
XBUFX2_163 vdd gnd _3567_ _3567__bF$buf8 BUFX2
XBUFX2_164 vdd gnd _3567_ _3567__bF$buf7 BUFX2
XBUFX2_165 vdd gnd _3567_ _3567__bF$buf6 BUFX2
XBUFX2_166 vdd gnd _3567_ _3567__bF$buf5 BUFX2
XBUFX2_167 vdd gnd _3567_ _3567__bF$buf4 BUFX2
XBUFX2_168 vdd gnd _3567_ _3567__bF$buf3 BUFX2
XBUFX2_169 vdd gnd _3567_ _3567__bF$buf2 BUFX2
XBUFX2_170 vdd gnd _3567_ _3567__bF$buf1 BUFX2
XBUFX2_171 vdd gnd _3567_ _3567__bF$buf0 BUFX2
XBUFX2_172 vdd gnd _5713_ _5713__bF$buf7 BUFX2
XBUFX2_173 vdd gnd _5713_ _5713__bF$buf6 BUFX2
XBUFX2_174 vdd gnd _5713_ _5713__bF$buf5 BUFX2
XBUFX2_175 vdd gnd _5713_ _5713__bF$buf4 BUFX2
XBUFX2_176 vdd gnd _5713_ _5713__bF$buf3 BUFX2
XBUFX2_177 vdd gnd _5713_ _5713__bF$buf2 BUFX2
XBUFX2_178 vdd gnd _5713_ _5713__bF$buf1 BUFX2
XBUFX2_179 vdd gnd _5713_ _5713__bF$buf0 BUFX2
XBUFX2_180 vdd gnd _6918_ _6918__bF$buf4 BUFX2
XBUFX2_181 vdd gnd _6918_ _6918__bF$buf3 BUFX2
XBUFX2_182 vdd gnd _6918_ _6918__bF$buf2 BUFX2
XBUFX2_183 vdd gnd _6918_ _6918__bF$buf1 BUFX2
XBUFX2_184 vdd gnd _6918_ _6918__bF$buf0 BUFX2
XBUFX2_185 vdd gnd _6116_ _6116__bF$buf7 BUFX2
XBUFX2_186 vdd gnd _6116_ _6116__bF$buf6 BUFX2
XBUFX2_187 vdd gnd _6116_ _6116__bF$buf5 BUFX2
XBUFX2_188 vdd gnd _6116_ _6116__bF$buf4 BUFX2
XBUFX2_189 vdd gnd _6116_ _6116__bF$buf3 BUFX2
XBUFX2_190 vdd gnd _6116_ _6116__bF$buf2 BUFX2
XBUFX2_191 vdd gnd _6116_ _6116__bF$buf1 BUFX2
XBUFX2_192 vdd gnd _6116_ _6116__bF$buf0 BUFX2
XBUFX2_193 vdd gnd _5980_ _5980__bF$buf7 BUFX2
XBUFX2_194 vdd gnd _5980_ _5980__bF$buf6 BUFX2
XBUFX2_195 vdd gnd _5980_ _5980__bF$buf5 BUFX2
XBUFX2_196 vdd gnd _5980_ _5980__bF$buf4 BUFX2
XBUFX2_197 vdd gnd _5980_ _5980__bF$buf3 BUFX2
XBUFX2_198 vdd gnd _5980_ _5980__bF$buf2 BUFX2
XBUFX2_199 vdd gnd _5980_ _5980__bF$buf1 BUFX2
XBUFX2_200 vdd gnd _5980_ _5980__bF$buf0 BUFX2
XBUFX2_201 vdd gnd _256_ _256__bF$buf3 BUFX2
XBUFX2_202 vdd gnd _256_ _256__bF$buf2 BUFX2
XBUFX2_203 vdd gnd _256_ _256__bF$buf1 BUFX2
XBUFX2_204 vdd gnd _256_ _256__bF$buf0 BUFX2
XBUFX2_205 vdd gnd _6383_ _6383__bF$buf4 BUFX2
XBUFX2_206 vdd gnd _6383_ _6383__bF$buf3 BUFX2
XBUFX2_207 vdd gnd _6383_ _6383__bF$buf2 BUFX2
XBUFX2_208 vdd gnd _6383_ _6383__bF$buf1 BUFX2
XBUFX2_209 vdd gnd _6383_ _6383__bF$buf0 BUFX2
XBUFX2_210 vdd gnd _5272_ _5272__bF$buf5 BUFX2
XBUFX2_211 vdd gnd _5272_ _5272__bF$buf4 BUFX2
XBUFX2_212 vdd gnd _5272_ _5272__bF$buf3 BUFX2
XBUFX2_213 vdd gnd _5272_ _5272__bF$buf2 BUFX2
XBUFX2_214 vdd gnd _5272_ _5272__bF$buf1 BUFX2
XBUFX2_215 vdd gnd _5272_ _5272__bF$buf0 BUFX2
XBUFX2_216 vdd gnd _5328_ _5328__bF$buf4 BUFX2
XBUFX2_217 vdd gnd _5328_ _5328__bF$buf3 BUFX2
XBUFX2_218 vdd gnd _5328_ _5328__bF$buf2 BUFX2
XBUFX2_219 vdd gnd _5328_ _5328__bF$buf1 BUFX2
XBUFX2_220 vdd gnd _5328_ _5328__bF$buf0 BUFX2
XBUFX2_221 vdd gnd datapath_1.Instr[20] datapath_1.Instr[20_bF$buf5] BUFX2
XBUFX2_222 vdd gnd datapath_1.Instr[20] datapath_1.Instr[20_bF$buf4] BUFX2
XBUFX2_223 vdd gnd datapath_1.Instr[20] datapath_1.Instr[20_bF$buf3] BUFX2
XBUFX2_224 vdd gnd datapath_1.Instr[20] datapath_1.Instr[20_bF$buf2] BUFX2
XBUFX2_225 vdd gnd datapath_1.Instr[20] datapath_1.Instr[20_bF$buf1] BUFX2
XBUFX2_226 vdd gnd datapath_1.Instr[20] datapath_1.Instr[20_bF$buf0] BUFX2
XBUFX2_227 vdd gnd datapath_1.Instr[17]_hier0_bF$buf3 datapath_1.Instr[17_bF$buf50] BUFX2
XBUFX2_228 vdd gnd datapath_1.Instr[17]_hier0_bF$buf1 datapath_1.Instr[17_bF$buf49] BUFX2
XBUFX2_229 vdd gnd datapath_1.Instr[17]_hier0_bF$buf1 datapath_1.Instr[17_bF$buf48] BUFX2
XBUFX2_230 vdd gnd datapath_1.Instr[17]_hier0_bF$buf1 datapath_1.Instr[17_bF$buf47] BUFX2
XBUFX2_231 vdd gnd datapath_1.Instr[17]_hier0_bF$buf4 datapath_1.Instr[17_bF$buf46] BUFX2
XBUFX2_232 vdd gnd datapath_1.Instr[17]_hier0_bF$buf5 datapath_1.Instr[17_bF$buf45] BUFX2
XBUFX2_233 vdd gnd datapath_1.Instr[17]_hier0_bF$buf5 datapath_1.Instr[17_bF$buf44] BUFX2
XBUFX2_234 vdd gnd datapath_1.Instr[17]_hier0_bF$buf1 datapath_1.Instr[17_bF$buf43] BUFX2
XBUFX2_235 vdd gnd datapath_1.Instr[17]_hier0_bF$buf5 datapath_1.Instr[17_bF$buf42] BUFX2
XBUFX2_236 vdd gnd datapath_1.Instr[17]_hier0_bF$buf4 datapath_1.Instr[17_bF$buf41] BUFX2
XBUFX2_237 vdd gnd datapath_1.Instr[17]_hier0_bF$buf5 datapath_1.Instr[17_bF$buf40] BUFX2
XBUFX2_238 vdd gnd datapath_1.Instr[17]_hier0_bF$buf5 datapath_1.Instr[17_bF$buf39] BUFX2
XBUFX2_239 vdd gnd datapath_1.Instr[17]_hier0_bF$buf1 datapath_1.Instr[17_bF$buf38] BUFX2
XBUFX2_240 vdd gnd datapath_1.Instr[17]_hier0_bF$buf4 datapath_1.Instr[17_bF$buf37] BUFX2
XBUFX2_241 vdd gnd datapath_1.Instr[17]_hier0_bF$buf4 datapath_1.Instr[17_bF$buf36] BUFX2
XBUFX2_242 vdd gnd datapath_1.Instr[17]_hier0_bF$buf4 datapath_1.Instr[17_bF$buf35] BUFX2
XBUFX2_243 vdd gnd datapath_1.Instr[17]_hier0_bF$buf1 datapath_1.Instr[17_bF$buf34] BUFX2
XBUFX2_244 vdd gnd datapath_1.Instr[17]_hier0_bF$buf5 datapath_1.Instr[17_bF$buf33] BUFX2
XBUFX2_245 vdd gnd datapath_1.Instr[17]_hier0_bF$buf3 datapath_1.Instr[17_bF$buf32] BUFX2
XBUFX2_246 vdd gnd datapath_1.Instr[17]_hier0_bF$buf4 datapath_1.Instr[17_bF$buf31] BUFX2
XBUFX2_247 vdd gnd datapath_1.Instr[17]_hier0_bF$buf6 datapath_1.Instr[17_bF$buf30] BUFX2
XBUFX2_248 vdd gnd datapath_1.Instr[17]_hier0_bF$buf5 datapath_1.Instr[17_bF$buf29] BUFX2
XBUFX2_249 vdd gnd datapath_1.Instr[17]_hier0_bF$buf3 datapath_1.Instr[17_bF$buf28] BUFX2
XBUFX2_250 vdd gnd datapath_1.Instr[17]_hier0_bF$buf6 datapath_1.Instr[17_bF$buf27] BUFX2
XBUFX2_251 vdd gnd datapath_1.Instr[17]_hier0_bF$buf5 datapath_1.Instr[17_bF$buf26] BUFX2
XBUFX2_252 vdd gnd datapath_1.Instr[17]_hier0_bF$buf3 datapath_1.Instr[17_bF$buf25] BUFX2
XBUFX2_253 vdd gnd datapath_1.Instr[17]_hier0_bF$buf3 datapath_1.Instr[17_bF$buf24] BUFX2
XBUFX2_254 vdd gnd datapath_1.Instr[17]_hier0_bF$buf3 datapath_1.Instr[17_bF$buf23] BUFX2
XBUFX2_255 vdd gnd datapath_1.Instr[17]_hier0_bF$buf6 datapath_1.Instr[17_bF$buf22] BUFX2
XBUFX2_256 vdd gnd datapath_1.Instr[17]_hier0_bF$buf2 datapath_1.Instr[17_bF$buf21] BUFX2
XBUFX2_257 vdd gnd datapath_1.Instr[17]_hier0_bF$buf2 datapath_1.Instr[17_bF$buf20] BUFX2
XBUFX2_258 vdd gnd datapath_1.Instr[17]_hier0_bF$buf0 datapath_1.Instr[17_bF$buf19] BUFX2
XBUFX2_259 vdd gnd datapath_1.Instr[17]_hier0_bF$buf6 datapath_1.Instr[17_bF$buf18] BUFX2
XBUFX2_260 vdd gnd datapath_1.Instr[17]_hier0_bF$buf0 datapath_1.Instr[17_bF$buf17] BUFX2
XBUFX2_261 vdd gnd datapath_1.Instr[17]_hier0_bF$buf2 datapath_1.Instr[17_bF$buf16] BUFX2
XBUFX2_262 vdd gnd datapath_1.Instr[17]_hier0_bF$buf0 datapath_1.Instr[17_bF$buf15] BUFX2
XBUFX2_263 vdd gnd datapath_1.Instr[17]_hier0_bF$buf0 datapath_1.Instr[17_bF$buf14] BUFX2
XBUFX2_264 vdd gnd datapath_1.Instr[17]_hier0_bF$buf2 datapath_1.Instr[17_bF$buf13] BUFX2
XBUFX2_265 vdd gnd datapath_1.Instr[17]_hier0_bF$buf0 datapath_1.Instr[17_bF$buf12] BUFX2
XBUFX2_266 vdd gnd datapath_1.Instr[17]_hier0_bF$buf2 datapath_1.Instr[17_bF$buf11] BUFX2
XBUFX2_267 vdd gnd datapath_1.Instr[17]_hier0_bF$buf2 datapath_1.Instr[17_bF$buf10] BUFX2
XBUFX2_268 vdd gnd datapath_1.Instr[17]_hier0_bF$buf0 datapath_1.Instr[17_bF$buf9] BUFX2
XBUFX2_269 vdd gnd datapath_1.Instr[17]_hier0_bF$buf0 datapath_1.Instr[17_bF$buf8] BUFX2
XBUFX2_270 vdd gnd datapath_1.Instr[17]_hier0_bF$buf4 datapath_1.Instr[17_bF$buf7] BUFX2
XBUFX2_271 vdd gnd datapath_1.Instr[17]_hier0_bF$buf6 datapath_1.Instr[17_bF$buf6] BUFX2
XBUFX2_272 vdd gnd datapath_1.Instr[17]_hier0_bF$buf2 datapath_1.Instr[17_bF$buf5] BUFX2
XBUFX2_273 vdd gnd datapath_1.Instr[17]_hier0_bF$buf3 datapath_1.Instr[17_bF$buf4] BUFX2
XBUFX2_274 vdd gnd datapath_1.Instr[17]_hier0_bF$buf6 datapath_1.Instr[17_bF$buf3] BUFX2
XBUFX2_275 vdd gnd datapath_1.Instr[17]_hier0_bF$buf6 datapath_1.Instr[17_bF$buf2] BUFX2
XBUFX2_276 vdd gnd datapath_1.Instr[17]_hier0_bF$buf1 datapath_1.Instr[17_bF$buf1] BUFX2
XBUFX2_277 vdd gnd datapath_1.Instr[17]_hier0_bF$buf6 datapath_1.Instr[17_bF$buf0] BUFX2
XBUFX2_278 vdd gnd _5613_ _5613__bF$buf7 BUFX2
XBUFX2_279 vdd gnd _5613_ _5613__bF$buf6 BUFX2
XBUFX2_280 vdd gnd _5613_ _5613__bF$buf5 BUFX2
XBUFX2_281 vdd gnd _5613_ _5613__bF$buf4 BUFX2
XBUFX2_282 vdd gnd _5613_ _5613__bF$buf3 BUFX2
XBUFX2_283 vdd gnd _5613_ _5613__bF$buf2 BUFX2
XBUFX2_284 vdd gnd _5613_ _5613__bF$buf1 BUFX2
XBUFX2_285 vdd gnd _5613_ _5613__bF$buf0 BUFX2
XBUFX2_286 vdd gnd _5880_ _5880__bF$buf7 BUFX2
XBUFX2_287 vdd gnd _5880_ _5880__bF$buf6 BUFX2
XBUFX2_288 vdd gnd _5880_ _5880__bF$buf5 BUFX2
XBUFX2_289 vdd gnd _5880_ _5880__bF$buf4 BUFX2
XBUFX2_290 vdd gnd _5880_ _5880__bF$buf3 BUFX2
XBUFX2_291 vdd gnd _5880_ _5880__bF$buf2 BUFX2
XBUFX2_292 vdd gnd _5880_ _5880__bF$buf1 BUFX2
XBUFX2_293 vdd gnd _5880_ _5880__bF$buf0 BUFX2
XBUFX2_294 vdd gnd _6283_ _6283__bF$buf7 BUFX2
XBUFX2_295 vdd gnd _6283_ _6283__bF$buf6 BUFX2
XBUFX2_296 vdd gnd _6283_ _6283__bF$buf5 BUFX2
XBUFX2_297 vdd gnd _6283_ _6283__bF$buf4 BUFX2
XBUFX2_298 vdd gnd _6283_ _6283__bF$buf3 BUFX2
XBUFX2_299 vdd gnd _6283_ _6283__bF$buf2 BUFX2
XBUFX2_300 vdd gnd _6283_ _6283__bF$buf1 BUFX2
XBUFX2_301 vdd gnd _6283_ _6283__bF$buf0 BUFX2
XBUFX2_302 vdd gnd _6013_ _6013__bF$buf7 BUFX2
XBUFX2_303 vdd gnd _6013_ _6013__bF$buf6 BUFX2
XBUFX2_304 vdd gnd _6013_ _6013__bF$buf5 BUFX2
XBUFX2_305 vdd gnd _6013_ _6013__bF$buf4 BUFX2
XBUFX2_306 vdd gnd _6013_ _6013__bF$buf3 BUFX2
XBUFX2_307 vdd gnd _6013_ _6013__bF$buf2 BUFX2
XBUFX2_308 vdd gnd _6013_ _6013__bF$buf1 BUFX2
XBUFX2_309 vdd gnd _6013_ _6013__bF$buf0 BUFX2
XBUFX2_310 vdd gnd _5322_ _5322__bF$buf4 BUFX2
XBUFX2_311 vdd gnd _5322_ _5322__bF$buf3 BUFX2
XBUFX2_312 vdd gnd _5322_ _5322__bF$buf2 BUFX2
XBUFX2_313 vdd gnd _5322_ _5322__bF$buf1 BUFX2
XBUFX2_314 vdd gnd _5322_ _5322__bF$buf0 BUFX2
XBUFX2_315 vdd gnd _1888_ _1888__bF$buf7 BUFX2
XBUFX2_316 vdd gnd _1888_ _1888__bF$buf6 BUFX2
XBUFX2_317 vdd gnd _1888_ _1888__bF$buf5 BUFX2
XBUFX2_318 vdd gnd _1888_ _1888__bF$buf4 BUFX2
XBUFX2_319 vdd gnd _1888_ _1888__bF$buf3 BUFX2
XBUFX2_320 vdd gnd _1888_ _1888__bF$buf2 BUFX2
XBUFX2_321 vdd gnd _1888_ _1888__bF$buf1 BUFX2
XBUFX2_322 vdd gnd _1888_ _1888__bF$buf0 BUFX2
XBUFX2_323 vdd gnd _5298_ _5298__bF$buf4 BUFX2
XBUFX2_324 vdd gnd _5298_ _5298__bF$buf3 BUFX2
XBUFX2_325 vdd gnd _5298_ _5298__bF$buf2 BUFX2
XBUFX2_326 vdd gnd _5298_ _5298__bF$buf1 BUFX2
XBUFX2_327 vdd gnd _5298_ _5298__bF$buf0 BUFX2
XBUFX2_328 vdd gnd IorD IorD_bF$buf7 BUFX2
XBUFX2_329 vdd gnd IorD IorD_bF$buf6 BUFX2
XBUFX2_330 vdd gnd IorD IorD_bF$buf5 BUFX2
XBUFX2_331 vdd gnd IorD IorD_bF$buf4 BUFX2
XBUFX2_332 vdd gnd IorD IorD_bF$buf3 BUFX2
XBUFX2_333 vdd gnd IorD IorD_bF$buf2 BUFX2
XBUFX2_334 vdd gnd IorD IorD_bF$buf1 BUFX2
XBUFX2_335 vdd gnd IorD IorD_bF$buf0 BUFX2
XCLKBUF1_1 clk_hier0_bF$buf7 vdd gnd clk_bF$buf113 CLKBUF1
XCLKBUF1_2 clk_hier0_bF$buf2 vdd gnd clk_bF$buf112 CLKBUF1
XCLKBUF1_3 clk_hier0_bF$buf1 vdd gnd clk_bF$buf111 CLKBUF1
XCLKBUF1_4 clk_hier0_bF$buf5 vdd gnd clk_bF$buf110 CLKBUF1
XCLKBUF1_5 clk_hier0_bF$buf2 vdd gnd clk_bF$buf109 CLKBUF1
XCLKBUF1_6 clk_hier0_bF$buf4 vdd gnd clk_bF$buf108 CLKBUF1
XCLKBUF1_7 clk_hier0_bF$buf1 vdd gnd clk_bF$buf107 CLKBUF1
XCLKBUF1_8 clk_hier0_bF$buf7 vdd gnd clk_bF$buf106 CLKBUF1
XCLKBUF1_9 clk_hier0_bF$buf6 vdd gnd clk_bF$buf105 CLKBUF1
XCLKBUF1_10 clk_hier0_bF$buf3 vdd gnd clk_bF$buf104 CLKBUF1
XCLKBUF1_11 clk_hier0_bF$buf7 vdd gnd clk_bF$buf103 CLKBUF1
XCLKBUF1_12 clk_hier0_bF$buf2 vdd gnd clk_bF$buf102 CLKBUF1
XCLKBUF1_13 clk_hier0_bF$buf8 vdd gnd clk_bF$buf101 CLKBUF1
XCLKBUF1_14 clk_hier0_bF$buf9 vdd gnd clk_bF$buf100 CLKBUF1
XCLKBUF1_15 clk_hier0_bF$buf5 vdd gnd clk_bF$buf99 CLKBUF1
XCLKBUF1_16 clk_hier0_bF$buf8 vdd gnd clk_bF$buf98 CLKBUF1
XCLKBUF1_17 clk_hier0_bF$buf3 vdd gnd clk_bF$buf97 CLKBUF1
XCLKBUF1_18 clk_hier0_bF$buf7 vdd gnd clk_bF$buf96 CLKBUF1
XCLKBUF1_19 clk_hier0_bF$buf3 vdd gnd clk_bF$buf95 CLKBUF1
XCLKBUF1_20 clk_hier0_bF$buf1 vdd gnd clk_bF$buf94 CLKBUF1
XCLKBUF1_21 clk_hier0_bF$buf5 vdd gnd clk_bF$buf93 CLKBUF1
XCLKBUF1_22 clk_hier0_bF$buf1 vdd gnd clk_bF$buf92 CLKBUF1
XCLKBUF1_23 clk_hier0_bF$buf4 vdd gnd clk_bF$buf91 CLKBUF1
XCLKBUF1_24 clk_hier0_bF$buf9 vdd gnd clk_bF$buf90 CLKBUF1
XCLKBUF1_25 clk_hier0_bF$buf8 vdd gnd clk_bF$buf89 CLKBUF1
XCLKBUF1_26 clk_hier0_bF$buf4 vdd gnd clk_bF$buf88 CLKBUF1
XCLKBUF1_27 clk_hier0_bF$buf9 vdd gnd clk_bF$buf87 CLKBUF1
XCLKBUF1_28 clk_hier0_bF$buf9 vdd gnd clk_bF$buf86 CLKBUF1
XCLKBUF1_29 clk_hier0_bF$buf0 vdd gnd clk_bF$buf85 CLKBUF1
XCLKBUF1_30 clk_hier0_bF$buf5 vdd gnd clk_bF$buf84 CLKBUF1
XCLKBUF1_31 clk_hier0_bF$buf3 vdd gnd clk_bF$buf83 CLKBUF1
XCLKBUF1_32 clk_hier0_bF$buf7 vdd gnd clk_bF$buf82 CLKBUF1
XCLKBUF1_33 clk_hier0_bF$buf5 vdd gnd clk_bF$buf81 CLKBUF1
XCLKBUF1_34 clk_hier0_bF$buf6 vdd gnd clk_bF$buf80 CLKBUF1
XCLKBUF1_35 clk_hier0_bF$buf9 vdd gnd clk_bF$buf79 CLKBUF1
XCLKBUF1_36 clk_hier0_bF$buf3 vdd gnd clk_bF$buf78 CLKBUF1
XCLKBUF1_37 clk_hier0_bF$buf7 vdd gnd clk_bF$buf77 CLKBUF1
XCLKBUF1_38 clk_hier0_bF$buf4 vdd gnd clk_bF$buf76 CLKBUF1
XCLKBUF1_39 clk_hier0_bF$buf0 vdd gnd clk_bF$buf75 CLKBUF1
XCLKBUF1_40 clk_hier0_bF$buf1 vdd gnd clk_bF$buf74 CLKBUF1
XCLKBUF1_41 clk_hier0_bF$buf8 vdd gnd clk_bF$buf73 CLKBUF1
XCLKBUF1_42 clk_hier0_bF$buf2 vdd gnd clk_bF$buf72 CLKBUF1
XCLKBUF1_43 clk_hier0_bF$buf4 vdd gnd clk_bF$buf71 CLKBUF1
XCLKBUF1_44 clk_hier0_bF$buf8 vdd gnd clk_bF$buf70 CLKBUF1
XCLKBUF1_45 clk_hier0_bF$buf6 vdd gnd clk_bF$buf69 CLKBUF1
XCLKBUF1_46 clk_hier0_bF$buf6 vdd gnd clk_bF$buf68 CLKBUF1
XCLKBUF1_47 clk_hier0_bF$buf7 vdd gnd clk_bF$buf67 CLKBUF1
XCLKBUF1_48 clk_hier0_bF$buf4 vdd gnd clk_bF$buf66 CLKBUF1
XCLKBUF1_49 clk_hier0_bF$buf7 vdd gnd clk_bF$buf65 CLKBUF1
XCLKBUF1_50 clk_hier0_bF$buf8 vdd gnd clk_bF$buf64 CLKBUF1
XCLKBUF1_51 clk_hier0_bF$buf0 vdd gnd clk_bF$buf63 CLKBUF1
XCLKBUF1_52 clk_hier0_bF$buf5 vdd gnd clk_bF$buf62 CLKBUF1
XCLKBUF1_53 clk_hier0_bF$buf8 vdd gnd clk_bF$buf61 CLKBUF1
XCLKBUF1_54 clk_hier0_bF$buf4 vdd gnd clk_bF$buf60 CLKBUF1
XCLKBUF1_55 clk_hier0_bF$buf3 vdd gnd clk_bF$buf59 CLKBUF1
XCLKBUF1_56 clk_hier0_bF$buf3 vdd gnd clk_bF$buf58 CLKBUF1
XCLKBUF1_57 clk_hier0_bF$buf3 vdd gnd clk_bF$buf57 CLKBUF1
XCLKBUF1_58 clk_hier0_bF$buf9 vdd gnd clk_bF$buf56 CLKBUF1
XCLKBUF1_59 clk_hier0_bF$buf8 vdd gnd clk_bF$buf55 CLKBUF1
XCLKBUF1_60 clk_hier0_bF$buf8 vdd gnd clk_bF$buf54 CLKBUF1
XCLKBUF1_61 clk_hier0_bF$buf1 vdd gnd clk_bF$buf53 CLKBUF1
XCLKBUF1_62 clk_hier0_bF$buf3 vdd gnd clk_bF$buf52 CLKBUF1
XCLKBUF1_63 clk_hier0_bF$buf7 vdd gnd clk_bF$buf51 CLKBUF1
XCLKBUF1_64 clk_hier0_bF$buf4 vdd gnd clk_bF$buf50 CLKBUF1
XCLKBUF1_65 clk_hier0_bF$buf8 vdd gnd clk_bF$buf49 CLKBUF1
XCLKBUF1_66 clk_hier0_bF$buf9 vdd gnd clk_bF$buf48 CLKBUF1
XCLKBUF1_67 clk_hier0_bF$buf4 vdd gnd clk_bF$buf47 CLKBUF1
XCLKBUF1_68 clk_hier0_bF$buf2 vdd gnd clk_bF$buf46 CLKBUF1
XCLKBUF1_69 clk_hier0_bF$buf2 vdd gnd clk_bF$buf45 CLKBUF1
XCLKBUF1_70 clk_hier0_bF$buf6 vdd gnd clk_bF$buf44 CLKBUF1
XCLKBUF1_71 clk_hier0_bF$buf4 vdd gnd clk_bF$buf43 CLKBUF1
XCLKBUF1_72 clk_hier0_bF$buf0 vdd gnd clk_bF$buf42 CLKBUF1
XCLKBUF1_73 clk_hier0_bF$buf0 vdd gnd clk_bF$buf41 CLKBUF1
XCLKBUF1_74 clk_hier0_bF$buf0 vdd gnd clk_bF$buf40 CLKBUF1
XCLKBUF1_75 clk_hier0_bF$buf5 vdd gnd clk_bF$buf39 CLKBUF1
XCLKBUF1_76 clk_hier0_bF$buf0 vdd gnd clk_bF$buf38 CLKBUF1
XCLKBUF1_77 clk_hier0_bF$buf1 vdd gnd clk_bF$buf37 CLKBUF1
XCLKBUF1_78 clk_hier0_bF$buf2 vdd gnd clk_bF$buf36 CLKBUF1
XCLKBUF1_79 clk_hier0_bF$buf8 vdd gnd clk_bF$buf35 CLKBUF1
XCLKBUF1_80 clk_hier0_bF$buf9 vdd gnd clk_bF$buf34 CLKBUF1
XCLKBUF1_81 clk_hier0_bF$buf5 vdd gnd clk_bF$buf33 CLKBUF1
XCLKBUF1_82 clk_hier0_bF$buf8 vdd gnd clk_bF$buf32 CLKBUF1
XCLKBUF1_83 clk_hier0_bF$buf3 vdd gnd clk_bF$buf31 CLKBUF1
XCLKBUF1_84 clk_hier0_bF$buf1 vdd gnd clk_bF$buf30 CLKBUF1
XCLKBUF1_85 clk_hier0_bF$buf9 vdd gnd clk_bF$buf29 CLKBUF1
XCLKBUF1_86 clk_hier0_bF$buf5 vdd gnd clk_bF$buf28 CLKBUF1
XCLKBUF1_87 clk_hier0_bF$buf6 vdd gnd clk_bF$buf27 CLKBUF1
XCLKBUF1_88 clk_hier0_bF$buf4 vdd gnd clk_bF$buf26 CLKBUF1
XCLKBUF1_89 clk_hier0_bF$buf0 vdd gnd clk_bF$buf25 CLKBUF1
XCLKBUF1_90 clk_hier0_bF$buf6 vdd gnd clk_bF$buf24 CLKBUF1
XCLKBUF1_91 clk_hier0_bF$buf9 vdd gnd clk_bF$buf23 CLKBUF1
XCLKBUF1_92 clk_hier0_bF$buf9 vdd gnd clk_bF$buf22 CLKBUF1
XCLKBUF1_93 clk_hier0_bF$buf7 vdd gnd clk_bF$buf21 CLKBUF1
XCLKBUF1_94 clk_hier0_bF$buf2 vdd gnd clk_bF$buf20 CLKBUF1
XCLKBUF1_95 clk_hier0_bF$buf1 vdd gnd clk_bF$buf19 CLKBUF1
XCLKBUF1_96 clk_hier0_bF$buf6 vdd gnd clk_bF$buf18 CLKBUF1
XCLKBUF1_97 clk_hier0_bF$buf5 vdd gnd clk_bF$buf17 CLKBUF1
XCLKBUF1_98 clk_hier0_bF$buf2 vdd gnd clk_bF$buf16 CLKBUF1
XCLKBUF1_99 clk_hier0_bF$buf1 vdd gnd clk_bF$buf15 CLKBUF1
XCLKBUF1_100 clk_hier0_bF$buf0 vdd gnd clk_bF$buf14 CLKBUF1
XCLKBUF1_101 clk_hier0_bF$buf9 vdd gnd clk_bF$buf13 CLKBUF1
XCLKBUF1_102 clk_hier0_bF$buf5 vdd gnd clk_bF$buf12 CLKBUF1
XCLKBUF1_103 clk_hier0_bF$buf2 vdd gnd clk_bF$buf11 CLKBUF1
XCLKBUF1_104 clk_hier0_bF$buf3 vdd gnd clk_bF$buf10 CLKBUF1
XCLKBUF1_105 clk_hier0_bF$buf6 vdd gnd clk_bF$buf9 CLKBUF1
XCLKBUF1_106 clk_hier0_bF$buf6 vdd gnd clk_bF$buf8 CLKBUF1
XCLKBUF1_107 clk_hier0_bF$buf2 vdd gnd clk_bF$buf7 CLKBUF1