* XSpice netlist created from SPICE and liberty sources by spi2xspice.py
*SPICE netlist created from BLIF module mips by blif2BSpice
.subckt mips a_vdd a_gnd a_clk a_rst a_MemData_0_ a_MemData_1_ a_MemData_2_ a_MemData_3_ a_MemData_4_ a_MemData_5_ a_MemData_6_ a_MemData_7_ a_MemData_8_ a_MemData_9_ a_MemData_10_ a_MemData_11_ a_MemData_12_ a_MemData_13_ a_MemData_14_ a_MemData_15_ a_MemData_16_ a_MemData_17_ a_MemData_18_ a_MemData_19_ a_MemData_20_ a_MemData_21_ a_MemData_22_ a_MemData_23_ a_MemData_24_ a_MemData_25_ a_MemData_26_ a_MemData_27_ a_MemData_28_ a_MemData_29_ a_MemData_30_ a_MemData_31_ a_MemWrite a_MemRead a_MemWriteData_0_ a_MemWriteData_1_ a_MemWriteData_2_ a_MemWriteData_3_ a_MemWriteData_4_ a_MemWriteData_5_ a_MemWriteData_6_ a_MemWriteData_7_ a_MemWriteData_8_ a_MemWriteData_9_ a_MemWriteData_10_ a_MemWriteData_11_ a_MemWriteData_12_ a_MemWriteData_13_ a_MemWriteData_14_ a_MemWriteData_15_ a_MemWriteData_16_ a_MemWriteData_17_ a_MemWriteData_18_ a_MemWriteData_19_ a_MemWriteData_20_ a_MemWriteData_21_ a_MemWriteData_22_ a_MemWriteData_23_ a_MemWriteData_24_ a_MemWriteData_25_ a_MemWriteData_26_ a_MemWriteData_27_ a_MemWriteData_28_ a_MemWriteData_29_ a_MemWriteData_30_ a_MemWriteData_31_ a_MemAddr_0_ a_MemAddr_1_ a_MemAddr_2_ a_MemAddr_3_ a_MemAddr_4_ a_MemAddr_5_ a_MemAddr_6_ a_MemAddr_7_ a_MemAddr_8_ a_MemAddr_9_ a_MemAddr_10_ a_MemAddr_11_ a_MemAddr_12_ a_MemAddr_13_ a_MemAddr_14_ a_MemAddr_15_ a_MemAddr_16_ a_MemAddr_17_ a_MemAddr_18_ a_MemAddr_19_ a_MemAddr_20_ a_MemAddr_21_ a_MemAddr_22_ a_MemAddr_23_ a_MemAddr_24_ a_MemAddr_25_ a_MemAddr_26_ a_MemAddr_27_ a_MemAddr_28_ a_MemAddr_29_ a_MemAddr_30_ a_MemAddr_31_
ABUFX2_1 [datapath_1.Instr_23_bF$buf10_] datapath_1.Instr_23_bF$buf10_bF$buf3_ d_lut_BUFX2
ABUFX2_2 [datapath_1.Instr_23_bF$buf10_] datapath_1.Instr_23_bF$buf10_bF$buf2_ d_lut_BUFX2
ABUFX2_3 [datapath_1.Instr_23_bF$buf10_] datapath_1.Instr_23_bF$buf10_bF$buf1_ d_lut_BUFX2
ABUFX2_4 [datapath_1.Instr_23_bF$buf10_] datapath_1.Instr_23_bF$buf10_bF$buf0_ d_lut_BUFX2
ABUFX2_5 [datapath_1.Instr_17_] datapath_1.Instr_17__hier0_bF$buf6 d_lut_BUFX2
ABUFX2_6 [datapath_1.Instr_17_] datapath_1.Instr_17__hier0_bF$buf5 d_lut_BUFX2
ABUFX2_7 [datapath_1.Instr_17_] datapath_1.Instr_17__hier0_bF$buf4 d_lut_BUFX2
ABUFX2_8 [datapath_1.Instr_17_] datapath_1.Instr_17__hier0_bF$buf3 d_lut_BUFX2
ABUFX2_9 [datapath_1.Instr_17_] datapath_1.Instr_17__hier0_bF$buf2 d_lut_BUFX2
ABUFX2_10 [datapath_1.Instr_17_] datapath_1.Instr_17__hier0_bF$buf1 d_lut_BUFX2
ABUFX2_11 [datapath_1.Instr_17_] datapath_1.Instr_17__hier0_bF$buf0 d_lut_BUFX2
ABUFX2_12 [clk] clk_hier0_bF$buf9 d_lut_BUFX2
ABUFX2_13 [clk] clk_hier0_bF$buf8 d_lut_BUFX2
ABUFX2_14 [clk] clk_hier0_bF$buf7 d_lut_BUFX2
ABUFX2_15 [clk] clk_hier0_bF$buf6 d_lut_BUFX2
ABUFX2_16 [clk] clk_hier0_bF$buf5 d_lut_BUFX2
ABUFX2_17 [clk] clk_hier0_bF$buf4 d_lut_BUFX2
ABUFX2_18 [clk] clk_hier0_bF$buf3 d_lut_BUFX2
ABUFX2_19 [clk] clk_hier0_bF$buf2 d_lut_BUFX2
ABUFX2_20 [clk] clk_hier0_bF$buf1 d_lut_BUFX2
ABUFX2_21 [clk] clk_hier0_bF$buf0 d_lut_BUFX2
ABUFX2_22 [datapath_1.Instr_23_bF$buf9_] datapath_1.Instr_23_bF$buf9_bF$buf3_ d_lut_BUFX2
ABUFX2_23 [datapath_1.Instr_23_bF$buf9_] datapath_1.Instr_23_bF$buf9_bF$buf2_ d_lut_BUFX2
ABUFX2_24 [datapath_1.Instr_23_bF$buf9_] datapath_1.Instr_23_bF$buf9_bF$buf1_ d_lut_BUFX2
ABUFX2_25 [datapath_1.Instr_23_bF$buf9_] datapath_1.Instr_23_bF$buf9_bF$buf0_ d_lut_BUFX2
ABUFX2_26 [datapath_1.Instr_23_bF$buf6_] datapath_1.Instr_23_bF$buf6_bF$buf3_ d_lut_BUFX2
ABUFX2_27 [datapath_1.Instr_23_bF$buf6_] datapath_1.Instr_23_bF$buf6_bF$buf2_ d_lut_BUFX2
ABUFX2_28 [datapath_1.Instr_23_bF$buf6_] datapath_1.Instr_23_bF$buf6_bF$buf1_ d_lut_BUFX2
ABUFX2_29 [datapath_1.Instr_23_bF$buf6_] datapath_1.Instr_23_bF$buf6_bF$buf0_ d_lut_BUFX2
ABUFX2_30 [datapath_1.Instr_23_bF$buf3_] datapath_1.Instr_23_bF$buf3_bF$buf3_ d_lut_BUFX2
ABUFX2_31 [datapath_1.Instr_23_bF$buf3_] datapath_1.Instr_23_bF$buf3_bF$buf2_ d_lut_BUFX2
ABUFX2_32 [datapath_1.Instr_23_bF$buf3_] datapath_1.Instr_23_bF$buf3_bF$buf1_ d_lut_BUFX2
ABUFX2_33 [datapath_1.Instr_23_bF$buf3_] datapath_1.Instr_23_bF$buf3_bF$buf0_ d_lut_BUFX2
ABUFX2_34 [datapath_1.Instr_23_bF$buf15_] datapath_1.Instr_23_bF$buf15_bF$buf3_ d_lut_BUFX2
ABUFX2_35 [datapath_1.Instr_23_bF$buf15_] datapath_1.Instr_23_bF$buf15_bF$buf2_ d_lut_BUFX2
ABUFX2_36 [datapath_1.Instr_23_bF$buf15_] datapath_1.Instr_23_bF$buf15_bF$buf1_ d_lut_BUFX2
ABUFX2_37 [datapath_1.Instr_23_bF$buf15_] datapath_1.Instr_23_bF$buf15_bF$buf0_ d_lut_BUFX2
ABUFX2_38 [datapath_1.Instr_23_bF$buf12_] datapath_1.Instr_23_bF$buf12_bF$buf3_ d_lut_BUFX2
ABUFX2_39 [datapath_1.Instr_23_bF$buf12_] datapath_1.Instr_23_bF$buf12_bF$buf2_ d_lut_BUFX2
ABUFX2_40 [datapath_1.Instr_23_bF$buf12_] datapath_1.Instr_23_bF$buf12_bF$buf1_ d_lut_BUFX2
ABUFX2_41 [datapath_1.Instr_23_bF$buf12_] datapath_1.Instr_23_bF$buf12_bF$buf0_ d_lut_BUFX2
ABUFX2_42 [datapath_1.Instr_22_] datapath_1.Instr_22__hier0_bF$buf6 d_lut_BUFX2
ABUFX2_43 [datapath_1.Instr_22_] datapath_1.Instr_22__hier0_bF$buf5 d_lut_BUFX2
ABUFX2_44 [datapath_1.Instr_22_] datapath_1.Instr_22__hier0_bF$buf4 d_lut_BUFX2
ABUFX2_45 [datapath_1.Instr_22_] datapath_1.Instr_22__hier0_bF$buf3 d_lut_BUFX2
ABUFX2_46 [datapath_1.Instr_22_] datapath_1.Instr_22__hier0_bF$buf2 d_lut_BUFX2
ABUFX2_47 [datapath_1.Instr_22_] datapath_1.Instr_22__hier0_bF$buf1 d_lut_BUFX2
ABUFX2_48 [datapath_1.Instr_22_] datapath_1.Instr_22__hier0_bF$buf0 d_lut_BUFX2
ABUFX2_49 [datapath_1.Instr_16_] datapath_1.Instr_16__hier0_bF$buf6 d_lut_BUFX2
ABUFX2_50 [datapath_1.Instr_16_] datapath_1.Instr_16__hier0_bF$buf5 d_lut_BUFX2
ABUFX2_51 [datapath_1.Instr_16_] datapath_1.Instr_16__hier0_bF$buf4 d_lut_BUFX2
ABUFX2_52 [datapath_1.Instr_16_] datapath_1.Instr_16__hier0_bF$buf3 d_lut_BUFX2
ABUFX2_53 [datapath_1.Instr_16_] datapath_1.Instr_16__hier0_bF$buf2 d_lut_BUFX2
ABUFX2_54 [datapath_1.Instr_16_] datapath_1.Instr_16__hier0_bF$buf1 d_lut_BUFX2
ABUFX2_55 [datapath_1.Instr_16_] datapath_1.Instr_16__hier0_bF$buf0 d_lut_BUFX2
ABUFX2_56 [_5265_] _5265__hier0_bF$buf8 d_lut_BUFX2
ABUFX2_57 [_5265_] _5265__hier0_bF$buf7 d_lut_BUFX2
ABUFX2_58 [_5265_] _5265__hier0_bF$buf6 d_lut_BUFX2
ABUFX2_59 [_5265_] _5265__hier0_bF$buf5 d_lut_BUFX2
ABUFX2_60 [_5265_] _5265__hier0_bF$buf4 d_lut_BUFX2
ABUFX2_61 [_5265_] _5265__hier0_bF$buf3 d_lut_BUFX2
ABUFX2_62 [_5265_] _5265__hier0_bF$buf2 d_lut_BUFX2
ABUFX2_63 [_5265_] _5265__hier0_bF$buf1 d_lut_BUFX2
ABUFX2_64 [_5265_] _5265__hier0_bF$buf0 d_lut_BUFX2
ABUFX2_65 [_1890_] _1890__hier0_bF$buf5 d_lut_BUFX2
ABUFX2_66 [_1890_] _1890__hier0_bF$buf4 d_lut_BUFX2
ABUFX2_67 [_1890_] _1890__hier0_bF$buf3 d_lut_BUFX2
ABUFX2_68 [_1890_] _1890__hier0_bF$buf2 d_lut_BUFX2
ABUFX2_69 [_1890_] _1890__hier0_bF$buf1 d_lut_BUFX2
ABUFX2_70 [_1890_] _1890__hier0_bF$buf0 d_lut_BUFX2
ABUFX2_71 [datapath_1.Instr_23_bF$buf8_] datapath_1.Instr_23_bF$buf8_bF$buf3_ d_lut_BUFX2
ABUFX2_72 [datapath_1.Instr_23_bF$buf8_] datapath_1.Instr_23_bF$buf8_bF$buf2_ d_lut_BUFX2
ABUFX2_73 [datapath_1.Instr_23_bF$buf8_] datapath_1.Instr_23_bF$buf8_bF$buf1_ d_lut_BUFX2
ABUFX2_74 [datapath_1.Instr_23_bF$buf8_] datapath_1.Instr_23_bF$buf8_bF$buf0_ d_lut_BUFX2
ABUFX2_75 [datapath_1.Instr_23_bF$buf5_] datapath_1.Instr_23_bF$buf5_bF$buf3_ d_lut_BUFX2
ABUFX2_76 [datapath_1.Instr_23_bF$buf5_] datapath_1.Instr_23_bF$buf5_bF$buf2_ d_lut_BUFX2
ABUFX2_77 [datapath_1.Instr_23_bF$buf5_] datapath_1.Instr_23_bF$buf5_bF$buf1_ d_lut_BUFX2
ABUFX2_78 [datapath_1.Instr_23_bF$buf5_] datapath_1.Instr_23_bF$buf5_bF$buf0_ d_lut_BUFX2
ABUFX2_79 [datapath_1.Instr_23_bF$buf2_] datapath_1.Instr_23_bF$buf2_bF$buf3_ d_lut_BUFX2
ABUFX2_80 [datapath_1.Instr_23_bF$buf2_] datapath_1.Instr_23_bF$buf2_bF$buf2_ d_lut_BUFX2
ABUFX2_81 [datapath_1.Instr_23_bF$buf2_] datapath_1.Instr_23_bF$buf2_bF$buf1_ d_lut_BUFX2
ABUFX2_82 [datapath_1.Instr_23_bF$buf2_] datapath_1.Instr_23_bF$buf2_bF$buf0_ d_lut_BUFX2
ABUFX2_83 [datapath_1.Instr_23_bF$buf14_] datapath_1.Instr_23_bF$buf14_bF$buf3_ d_lut_BUFX2
ABUFX2_84 [datapath_1.Instr_23_bF$buf14_] datapath_1.Instr_23_bF$buf14_bF$buf2_ d_lut_BUFX2
ABUFX2_85 [datapath_1.Instr_23_bF$buf14_] datapath_1.Instr_23_bF$buf14_bF$buf1_ d_lut_BUFX2
ABUFX2_86 [datapath_1.Instr_23_bF$buf14_] datapath_1.Instr_23_bF$buf14_bF$buf0_ d_lut_BUFX2
ABUFX2_87 [datapath_1.Instr_23_bF$buf11_] datapath_1.Instr_23_bF$buf11_bF$buf3_ d_lut_BUFX2
ABUFX2_88 [datapath_1.Instr_23_bF$buf11_] datapath_1.Instr_23_bF$buf11_bF$buf2_ d_lut_BUFX2
ABUFX2_89 [datapath_1.Instr_23_bF$buf11_] datapath_1.Instr_23_bF$buf11_bF$buf1_ d_lut_BUFX2
ABUFX2_90 [datapath_1.Instr_23_bF$buf11_] datapath_1.Instr_23_bF$buf11_bF$buf0_ d_lut_BUFX2
ABUFX2_91 [datapath_1.Instr_21_] datapath_1.Instr_21__hier0_bF$buf6 d_lut_BUFX2
ABUFX2_92 [datapath_1.Instr_21_] datapath_1.Instr_21__hier0_bF$buf5 d_lut_BUFX2
ABUFX2_93 [datapath_1.Instr_21_] datapath_1.Instr_21__hier0_bF$buf4 d_lut_BUFX2
ABUFX2_94 [datapath_1.Instr_21_] datapath_1.Instr_21__hier0_bF$buf3 d_lut_BUFX2
ABUFX2_95 [datapath_1.Instr_21_] datapath_1.Instr_21__hier0_bF$buf2 d_lut_BUFX2
ABUFX2_96 [datapath_1.Instr_21_] datapath_1.Instr_21__hier0_bF$buf1 d_lut_BUFX2
ABUFX2_97 [datapath_1.Instr_21_] datapath_1.Instr_21__hier0_bF$buf0 d_lut_BUFX2
ABUFX2_98 [datapath_1.Instr_18_] datapath_1.Instr_18__hier0_bF$buf5 d_lut_BUFX2
ABUFX2_99 [datapath_1.Instr_18_] datapath_1.Instr_18__hier0_bF$buf4 d_lut_BUFX2
ABUFX2_100 [datapath_1.Instr_18_] datapath_1.Instr_18__hier0_bF$buf3 d_lut_BUFX2
ABUFX2_101 [datapath_1.Instr_18_] datapath_1.Instr_18__hier0_bF$buf2 d_lut_BUFX2
ABUFX2_102 [datapath_1.Instr_18_] datapath_1.Instr_18__hier0_bF$buf1 d_lut_BUFX2
ABUFX2_103 [datapath_1.Instr_18_] datapath_1.Instr_18__hier0_bF$buf0 d_lut_BUFX2
ABUFX2_104 [_3588_] _3588__hier0_bF$buf5 d_lut_BUFX2
ABUFX2_105 [_3588_] _3588__hier0_bF$buf4 d_lut_BUFX2
ABUFX2_106 [_3588_] _3588__hier0_bF$buf3 d_lut_BUFX2
ABUFX2_107 [_3588_] _3588__hier0_bF$buf2 d_lut_BUFX2
ABUFX2_108 [_3588_] _3588__hier0_bF$buf1 d_lut_BUFX2
ABUFX2_109 [_3588_] _3588__hier0_bF$buf0 d_lut_BUFX2
ABUFX2_110 [datapath_1.Instr_23_bF$buf7_] datapath_1.Instr_23_bF$buf7_bF$buf3_ d_lut_BUFX2
ABUFX2_111 [datapath_1.Instr_23_bF$buf7_] datapath_1.Instr_23_bF$buf7_bF$buf2_ d_lut_BUFX2
ABUFX2_112 [datapath_1.Instr_23_bF$buf7_] datapath_1.Instr_23_bF$buf7_bF$buf1_ d_lut_BUFX2
ABUFX2_113 [datapath_1.Instr_23_bF$buf7_] datapath_1.Instr_23_bF$buf7_bF$buf0_ d_lut_BUFX2
ABUFX2_114 [datapath_1.Instr_23_bF$buf4_] datapath_1.Instr_23_bF$buf4_bF$buf3_ d_lut_BUFX2
ABUFX2_115 [datapath_1.Instr_23_bF$buf4_] datapath_1.Instr_23_bF$buf4_bF$buf2_ d_lut_BUFX2
ABUFX2_116 [datapath_1.Instr_23_bF$buf4_] datapath_1.Instr_23_bF$buf4_bF$buf1_ d_lut_BUFX2
ABUFX2_117 [datapath_1.Instr_23_bF$buf4_] datapath_1.Instr_23_bF$buf4_bF$buf0_ d_lut_BUFX2
ABUFX2_118 [datapath_1.Instr_23_bF$buf13_] datapath_1.Instr_23_bF$buf13_bF$buf3_ d_lut_BUFX2
ABUFX2_119 [datapath_1.Instr_23_bF$buf13_] datapath_1.Instr_23_bF$buf13_bF$buf2_ d_lut_BUFX2
ABUFX2_120 [datapath_1.Instr_23_bF$buf13_] datapath_1.Instr_23_bF$buf13_bF$buf1_ d_lut_BUFX2
ABUFX2_121 [datapath_1.Instr_23_bF$buf13_] datapath_1.Instr_23_bF$buf13_bF$buf0_ d_lut_BUFX2
ABUFX2_122 [_5278_] _5278__bF$buf4 d_lut_BUFX2
ABUFX2_123 [_5278_] _5278__bF$buf3 d_lut_BUFX2
ABUFX2_124 [_5278_] _5278__bF$buf2 d_lut_BUFX2
ABUFX2_125 [_5278_] _5278__bF$buf1 d_lut_BUFX2
ABUFX2_126 [_5278_] _5278__bF$buf0 d_lut_BUFX2
ABUFX2_127 [_5334_] _5334__bF$buf4 d_lut_BUFX2
ABUFX2_128 [_5334_] _5334__bF$buf3 d_lut_BUFX2
ABUFX2_129 [_5334_] _5334__bF$buf2 d_lut_BUFX2
ABUFX2_130 [_5334_] _5334__bF$buf1 d_lut_BUFX2
ABUFX2_131 [_5334_] _5334__bF$buf0 d_lut_BUFX2
ABUFX2_132 [_5275_] _5275__bF$buf7 d_lut_BUFX2
ABUFX2_133 [_5275_] _5275__bF$buf6 d_lut_BUFX2
ABUFX2_134 [_5275_] _5275__bF$buf5 d_lut_BUFX2
ABUFX2_135 [_5275_] _5275__bF$buf4 d_lut_BUFX2
ABUFX2_136 [_5275_] _5275__bF$buf3 d_lut_BUFX2
ABUFX2_137 [_5275_] _5275__bF$buf2 d_lut_BUFX2
ABUFX2_138 [_5275_] _5275__bF$buf1 d_lut_BUFX2
ABUFX2_139 [_5275_] _5275__bF$buf0 d_lut_BUFX2
ABUFX2_140 [_3570_] _3570__bF$buf4 d_lut_BUFX2
ABUFX2_141 [_3570_] _3570__bF$buf3 d_lut_BUFX2
ABUFX2_142 [_3570_] _3570__bF$buf2 d_lut_BUFX2
ABUFX2_143 [_3570_] _3570__bF$buf1 d_lut_BUFX2
ABUFX2_144 [_3570_] _3570__bF$buf0 d_lut_BUFX2
ABUFX2_145 [datapath_1.Instr_23_] datapath_1.Instr_23_bF$buf15_ d_lut_BUFX2
ABUFX2_146 [datapath_1.Instr_23_] datapath_1.Instr_23_bF$buf14_ d_lut_BUFX2
ABUFX2_147 [datapath_1.Instr_23_] datapath_1.Instr_23_bF$buf13_ d_lut_BUFX2
ABUFX2_148 [datapath_1.Instr_23_] datapath_1.Instr_23_bF$buf12_ d_lut_BUFX2
ABUFX2_149 [datapath_1.Instr_23_] datapath_1.Instr_23_bF$buf11_ d_lut_BUFX2
ABUFX2_150 [datapath_1.Instr_23_] datapath_1.Instr_23_bF$buf10_ d_lut_BUFX2
ABUFX2_151 [datapath_1.Instr_23_] datapath_1.Instr_23_bF$buf9_ d_lut_BUFX2
ABUFX2_152 [datapath_1.Instr_23_] datapath_1.Instr_23_bF$buf8_ d_lut_BUFX2
ABUFX2_153 [datapath_1.Instr_23_] datapath_1.Instr_23_bF$buf7_ d_lut_BUFX2
ABUFX2_154 [datapath_1.Instr_23_] datapath_1.Instr_23_bF$buf6_ d_lut_BUFX2
ABUFX2_155 [datapath_1.Instr_23_] datapath_1.Instr_23_bF$buf5_ d_lut_BUFX2
ABUFX2_156 [datapath_1.Instr_23_] datapath_1.Instr_23_bF$buf4_ d_lut_BUFX2
ABUFX2_157 [datapath_1.Instr_23_] datapath_1.Instr_23_bF$buf3_ d_lut_BUFX2
ABUFX2_158 [datapath_1.Instr_23_] datapath_1.Instr_23_bF$buf2_ d_lut_BUFX2
ABUFX2_159 [datapath_1.Instr_23_] datapath_1.Instr_23_bF$buf1_ d_lut_BUFX2
ABUFX2_160 [datapath_1.Instr_23_] datapath_1.Instr_23_bF$buf0_ d_lut_BUFX2
ABUFX2_161 [_3567_] _3567__bF$buf10 d_lut_BUFX2
ABUFX2_162 [_3567_] _3567__bF$buf9 d_lut_BUFX2
ABUFX2_163 [_3567_] _3567__bF$buf8 d_lut_BUFX2
ABUFX2_164 [_3567_] _3567__bF$buf7 d_lut_BUFX2
ABUFX2_165 [_3567_] _3567__bF$buf6 d_lut_BUFX2
ABUFX2_166 [_3567_] _3567__bF$buf5 d_lut_BUFX2
ABUFX2_167 [_3567_] _3567__bF$buf4 d_lut_BUFX2
ABUFX2_168 [_3567_] _3567__bF$buf3 d_lut_BUFX2
ABUFX2_169 [_3567_] _3567__bF$buf2 d_lut_BUFX2
ABUFX2_170 [_3567_] _3567__bF$buf1 d_lut_BUFX2
ABUFX2_171 [_3567_] _3567__bF$buf0 d_lut_BUFX2
ABUFX2_172 [_5713_] _5713__bF$buf7 d_lut_BUFX2
ABUFX2_173 [_5713_] _5713__bF$buf6 d_lut_BUFX2
ABUFX2_174 [_5713_] _5713__bF$buf5 d_lut_BUFX2
ABUFX2_175 [_5713_] _5713__bF$buf4 d_lut_BUFX2
ABUFX2_176 [_5713_] _5713__bF$buf3 d_lut_BUFX2
ABUFX2_177 [_5713_] _5713__bF$buf2 d_lut_BUFX2
ABUFX2_178 [_5713_] _5713__bF$buf1 d_lut_BUFX2
ABUFX2_179 [_5713_] _5713__bF$buf0 d_lut_BUFX2
ABUFX2_180 [_6918_] _6918__bF$buf4 d_lut_BUFX2
ABUFX2_181 [_6918_] _6918__bF$buf3 d_lut_BUFX2
ABUFX2_182 [_6918_] _6918__bF$buf2 d_lut_BUFX2
ABUFX2_183 [_6918_] _6918__bF$buf1 d_lut_BUFX2
ABUFX2_184 [_6918_] _6918__bF$buf0 d_lut_BUFX2
ABUFX2_185 [_6116_] _6116__bF$buf7 d_lut_BUFX2
ABUFX2_186 [_6116_] _6116__bF$buf6 d_lut_BUFX2
ABUFX2_187 [_6116_] _6116__bF$buf5 d_lut_BUFX2
ABUFX2_188 [_6116_] _6116__bF$buf4 d_lut_BUFX2
ABUFX2_189 [_6116_] _6116__bF$buf3 d_lut_BUFX2
ABUFX2_190 [_6116_] _6116__bF$buf2 d_lut_BUFX2
ABUFX2_191 [_6116_] _6116__bF$buf1 d_lut_BUFX2
ABUFX2_192 [_6116_] _6116__bF$buf0 d_lut_BUFX2
ABUFX2_193 [_5980_] _5980__bF$buf7 d_lut_BUFX2
ABUFX2_194 [_5980_] _5980__bF$buf6 d_lut_BUFX2
ABUFX2_195 [_5980_] _5980__bF$buf5 d_lut_BUFX2
ABUFX2_196 [_5980_] _5980__bF$buf4 d_lut_BUFX2
ABUFX2_197 [_5980_] _5980__bF$buf3 d_lut_BUFX2
ABUFX2_198 [_5980_] _5980__bF$buf2 d_lut_BUFX2
ABUFX2_199 [_5980_] _5980__bF$buf1 d_lut_BUFX2
ABUFX2_200 [_5980_] _5980__bF$buf0 d_lut_BUFX2
ABUFX2_201 [_256_] _256__bF$buf3 d_lut_BUFX2
ABUFX2_202 [_256_] _256__bF$buf2 d_lut_BUFX2
ABUFX2_203 [_256_] _256__bF$buf1 d_lut_BUFX2
ABUFX2_204 [_256_] _256__bF$buf0 d_lut_BUFX2
ABUFX2_205 [_6383_] _6383__bF$buf4 d_lut_BUFX2
ABUFX2_206 [_6383_] _6383__bF$buf3 d_lut_BUFX2
ABUFX2_207 [_6383_] _6383__bF$buf2 d_lut_BUFX2
ABUFX2_208 [_6383_] _6383__bF$buf1 d_lut_BUFX2
ABUFX2_209 [_6383_] _6383__bF$buf0 d_lut_BUFX2
ABUFX2_210 [_5272_] _5272__bF$buf5 d_lut_BUFX2
ABUFX2_211 [_5272_] _5272__bF$buf4 d_lut_BUFX2
ABUFX2_212 [_5272_] _5272__bF$buf3 d_lut_BUFX2
ABUFX2_213 [_5272_] _5272__bF$buf2 d_lut_BUFX2
ABUFX2_214 [_5272_] _5272__bF$buf1 d_lut_BUFX2
ABUFX2_215 [_5272_] _5272__bF$buf0 d_lut_BUFX2
ABUFX2_216 [_5328_] _5328__bF$buf4 d_lut_BUFX2
ABUFX2_217 [_5328_] _5328__bF$buf3 d_lut_BUFX2
ABUFX2_218 [_5328_] _5328__bF$buf2 d_lut_BUFX2
ABUFX2_219 [_5328_] _5328__bF$buf1 d_lut_BUFX2
ABUFX2_220 [_5328_] _5328__bF$buf0 d_lut_BUFX2
ABUFX2_221 [datapath_1.Instr_20_] datapath_1.Instr_20_bF$buf5_ d_lut_BUFX2
ABUFX2_222 [datapath_1.Instr_20_] datapath_1.Instr_20_bF$buf4_ d_lut_BUFX2
ABUFX2_223 [datapath_1.Instr_20_] datapath_1.Instr_20_bF$buf3_ d_lut_BUFX2
ABUFX2_224 [datapath_1.Instr_20_] datapath_1.Instr_20_bF$buf2_ d_lut_BUFX2
ABUFX2_225 [datapath_1.Instr_20_] datapath_1.Instr_20_bF$buf1_ d_lut_BUFX2
ABUFX2_226 [datapath_1.Instr_20_] datapath_1.Instr_20_bF$buf0_ d_lut_BUFX2
ABUFX2_227 [datapath_1.Instr_17__hier0_bF$buf6] datapath_1.Instr_17_bF$buf50_ d_lut_BUFX2
ABUFX2_228 [datapath_1.Instr_17__hier0_bF$buf5] datapath_1.Instr_17_bF$buf49_ d_lut_BUFX2
ABUFX2_229 [datapath_1.Instr_17__hier0_bF$buf4] datapath_1.Instr_17_bF$buf48_ d_lut_BUFX2
ABUFX2_230 [datapath_1.Instr_17__hier0_bF$buf3] datapath_1.Instr_17_bF$buf47_ d_lut_BUFX2
ABUFX2_231 [datapath_1.Instr_17__hier0_bF$buf2] datapath_1.Instr_17_bF$buf46_ d_lut_BUFX2
ABUFX2_232 [datapath_1.Instr_17__hier0_bF$buf1] datapath_1.Instr_17_bF$buf45_ d_lut_BUFX2
ABUFX2_233 [datapath_1.Instr_17__hier0_bF$buf0] datapath_1.Instr_17_bF$buf44_ d_lut_BUFX2
ABUFX2_234 [datapath_1.Instr_17__hier0_bF$buf6] datapath_1.Instr_17_bF$buf43_ d_lut_BUFX2
ABUFX2_235 [datapath_1.Instr_17__hier0_bF$buf5] datapath_1.Instr_17_bF$buf42_ d_lut_BUFX2
ABUFX2_236 [datapath_1.Instr_17__hier0_bF$buf4] datapath_1.Instr_17_bF$buf41_ d_lut_BUFX2
ABUFX2_237 [datapath_1.Instr_17__hier0_bF$buf3] datapath_1.Instr_17_bF$buf40_ d_lut_BUFX2
ABUFX2_238 [datapath_1.Instr_17__hier0_bF$buf2] datapath_1.Instr_17_bF$buf39_ d_lut_BUFX2
ABUFX2_239 [datapath_1.Instr_17__hier0_bF$buf1] datapath_1.Instr_17_bF$buf38_ d_lut_BUFX2
ABUFX2_240 [datapath_1.Instr_17__hier0_bF$buf0] datapath_1.Instr_17_bF$buf37_ d_lut_BUFX2
ABUFX2_241 [datapath_1.Instr_17__hier0_bF$buf6] datapath_1.Instr_17_bF$buf36_ d_lut_BUFX2
ABUFX2_242 [datapath_1.Instr_17__hier0_bF$buf5] datapath_1.Instr_17_bF$buf35_ d_lut_BUFX2
ABUFX2_243 [datapath_1.Instr_17__hier0_bF$buf4] datapath_1.Instr_17_bF$buf34_ d_lut_BUFX2
ABUFX2_244 [datapath_1.Instr_17__hier0_bF$buf3] datapath_1.Instr_17_bF$buf33_ d_lut_BUFX2
ABUFX2_245 [datapath_1.Instr_17__hier0_bF$buf2] datapath_1.Instr_17_bF$buf32_ d_lut_BUFX2
ABUFX2_246 [datapath_1.Instr_17__hier0_bF$buf1] datapath_1.Instr_17_bF$buf31_ d_lut_BUFX2
ABUFX2_247 [datapath_1.Instr_17__hier0_bF$buf0] datapath_1.Instr_17_bF$buf30_ d_lut_BUFX2
ABUFX2_248 [datapath_1.Instr_17__hier0_bF$buf6] datapath_1.Instr_17_bF$buf29_ d_lut_BUFX2
ABUFX2_249 [datapath_1.Instr_17__hier0_bF$buf5] datapath_1.Instr_17_bF$buf28_ d_lut_BUFX2
ABUFX2_250 [datapath_1.Instr_17__hier0_bF$buf4] datapath_1.Instr_17_bF$buf27_ d_lut_BUFX2
ABUFX2_251 [datapath_1.Instr_17__hier0_bF$buf3] datapath_1.Instr_17_bF$buf26_ d_lut_BUFX2
ABUFX2_252 [datapath_1.Instr_17__hier0_bF$buf2] datapath_1.Instr_17_bF$buf25_ d_lut_BUFX2
ABUFX2_253 [datapath_1.Instr_17__hier0_bF$buf1] datapath_1.Instr_17_bF$buf24_ d_lut_BUFX2
ABUFX2_254 [datapath_1.Instr_17__hier0_bF$buf0] datapath_1.Instr_17_bF$buf23_ d_lut_BUFX2
ABUFX2_255 [datapath_1.Instr_17__hier0_bF$buf6] datapath_1.Instr_17_bF$buf22_ d_lut_BUFX2
ABUFX2_256 [datapath_1.Instr_17__hier0_bF$buf5] datapath_1.Instr_17_bF$buf21_ d_lut_BUFX2
ABUFX2_257 [datapath_1.Instr_17__hier0_bF$buf4] datapath_1.Instr_17_bF$buf20_ d_lut_BUFX2
ABUFX2_258 [datapath_1.Instr_17__hier0_bF$buf3] datapath_1.Instr_17_bF$buf19_ d_lut_BUFX2
ABUFX2_259 [datapath_1.Instr_17__hier0_bF$buf2] datapath_1.Instr_17_bF$buf18_ d_lut_BUFX2
ABUFX2_260 [datapath_1.Instr_17__hier0_bF$buf1] datapath_1.Instr_17_bF$buf17_ d_lut_BUFX2
ABUFX2_261 [datapath_1.Instr_17__hier0_bF$buf0] datapath_1.Instr_17_bF$buf16_ d_lut_BUFX2
ABUFX2_262 [datapath_1.Instr_17__hier0_bF$buf6] datapath_1.Instr_17_bF$buf15_ d_lut_BUFX2
ABUFX2_263 [datapath_1.Instr_17__hier0_bF$buf5] datapath_1.Instr_17_bF$buf14_ d_lut_BUFX2
ABUFX2_264 [datapath_1.Instr_17__hier0_bF$buf4] datapath_1.Instr_17_bF$buf13_ d_lut_BUFX2
ABUFX2_265 [datapath_1.Instr_17__hier0_bF$buf3] datapath_1.Instr_17_bF$buf12_ d_lut_BUFX2
ABUFX2_266 [datapath_1.Instr_17__hier0_bF$buf2] datapath_1.Instr_17_bF$buf11_ d_lut_BUFX2
ABUFX2_267 [datapath_1.Instr_17__hier0_bF$buf1] datapath_1.Instr_17_bF$buf10_ d_lut_BUFX2
ABUFX2_268 [datapath_1.Instr_17__hier0_bF$buf0] datapath_1.Instr_17_bF$buf9_ d_lut_BUFX2
ABUFX2_269 [datapath_1.Instr_17__hier0_bF$buf6] datapath_1.Instr_17_bF$buf8_ d_lut_BUFX2
ABUFX2_270 [datapath_1.Instr_17__hier0_bF$buf5] datapath_1.Instr_17_bF$buf7_ d_lut_BUFX2
ABUFX2_271 [datapath_1.Instr_17__hier0_bF$buf4] datapath_1.Instr_17_bF$buf6_ d_lut_BUFX2
ABUFX2_272 [datapath_1.Instr_17__hier0_bF$buf3] datapath_1.Instr_17_bF$buf5_ d_lut_BUFX2
ABUFX2_273 [datapath_1.Instr_17__hier0_bF$buf2] datapath_1.Instr_17_bF$buf4_ d_lut_BUFX2
ABUFX2_274 [datapath_1.Instr_17__hier0_bF$buf1] datapath_1.Instr_17_bF$buf3_ d_lut_BUFX2
ABUFX2_275 [datapath_1.Instr_17__hier0_bF$buf0] datapath_1.Instr_17_bF$buf2_ d_lut_BUFX2
ABUFX2_276 [datapath_1.Instr_17__hier0_bF$buf6] datapath_1.Instr_17_bF$buf1_ d_lut_BUFX2
ABUFX2_277 [datapath_1.Instr_17__hier0_bF$buf5] datapath_1.Instr_17_bF$buf0_ d_lut_BUFX2
ABUFX2_278 [_5613_] _5613__bF$buf7 d_lut_BUFX2
ABUFX2_279 [_5613_] _5613__bF$buf6 d_lut_BUFX2
ABUFX2_280 [_5613_] _5613__bF$buf5 d_lut_BUFX2
ABUFX2_281 [_5613_] _5613__bF$buf4 d_lut_BUFX2
ABUFX2_282 [_5613_] _5613__bF$buf3 d_lut_BUFX2
ABUFX2_283 [_5613_] _5613__bF$buf2 d_lut_BUFX2
ABUFX2_284 [_5613_] _5613__bF$buf1 d_lut_BUFX2
ABUFX2_285 [_5613_] _5613__bF$buf0 d_lut_BUFX2
ABUFX2_286 [_5880_] _5880__bF$buf7 d_lut_BUFX2
ABUFX2_287 [_5880_] _5880__bF$buf6 d_lut_BUFX2
ABUFX2_288 [_5880_] _5880__bF$buf5 d_lut_BUFX2
ABUFX2_289 [_5880_] _5880__bF$buf4 d_lut_BUFX2
ABUFX2_290 [_5880_] _5880__bF$buf3 d_lut_BUFX2
ABUFX2_291 [_5880_] _5880__bF$buf2 d_lut_BUFX2
ABUFX2_292 [_5880_] _5880__bF$buf1 d_lut_BUFX2
ABUFX2_293 [_5880_] _5880__bF$buf0 d_lut_BUFX2
ABUFX2_294 [_6283_] _6283__bF$buf7 d_lut_BUFX2
ABUFX2_295 [_6283_] _6283__bF$buf6 d_lut_BUFX2
ABUFX2_296 [_6283_] _6283__bF$buf5 d_lut_BUFX2
ABUFX2_297 [_6283_] _6283__bF$buf4 d_lut_BUFX2
ABUFX2_298 [_6283_] _6283__bF$buf3 d_lut_BUFX2
ABUFX2_299 [_6283_] _6283__bF$buf2 d_lut_BUFX2
ABUFX2_300 [_6283_] _6283__bF$buf1 d_lut_BUFX2
ABUFX2_301 [_6283_] _6283__bF$buf0 d_lut_BUFX2
ABUFX2_302 [_6013_] _6013__bF$buf7 d_lut_BUFX2
ABUFX2_303 [_6013_] _6013__bF$buf6 d_lut_BUFX2
ABUFX2_304 [_6013_] _6013__bF$buf5 d_lut_BUFX2
ABUFX2_305 [_6013_] _6013__bF$buf4 d_lut_BUFX2
ABUFX2_306 [_6013_] _6013__bF$buf3 d_lut_BUFX2
ABUFX2_307 [_6013_] _6013__bF$buf2 d_lut_BUFX2
ABUFX2_308 [_6013_] _6013__bF$buf1 d_lut_BUFX2
ABUFX2_309 [_6013_] _6013__bF$buf0 d_lut_BUFX2
ABUFX2_310 [_5322_] _5322__bF$buf4 d_lut_BUFX2
ABUFX2_311 [_5322_] _5322__bF$buf3 d_lut_BUFX2
ABUFX2_312 [_5322_] _5322__bF$buf2 d_lut_BUFX2
ABUFX2_313 [_5322_] _5322__bF$buf1 d_lut_BUFX2
ABUFX2_314 [_5322_] _5322__bF$buf0 d_lut_BUFX2
ABUFX2_315 [_1888_] _1888__bF$buf7 d_lut_BUFX2
ABUFX2_316 [_1888_] _1888__bF$buf6 d_lut_BUFX2
ABUFX2_317 [_1888_] _1888__bF$buf5 d_lut_BUFX2
ABUFX2_318 [_1888_] _1888__bF$buf4 d_lut_BUFX2
ABUFX2_319 [_1888_] _1888__bF$buf3 d_lut_BUFX2
ABUFX2_320 [_1888_] _1888__bF$buf2 d_lut_BUFX2
ABUFX2_321 [_1888_] _1888__bF$buf1 d_lut_BUFX2
ABUFX2_322 [_1888_] _1888__bF$buf0 d_lut_BUFX2
ABUFX2_323 [_5298_] _5298__bF$buf4 d_lut_BUFX2
ABUFX2_324 [_5298_] _5298__bF$buf3 d_lut_BUFX2
ABUFX2_325 [_5298_] _5298__bF$buf2 d_lut_BUFX2
ABUFX2_326 [_5298_] _5298__bF$buf1 d_lut_BUFX2
ABUFX2_327 [_5298_] _5298__bF$buf0 d_lut_BUFX2
ABUFX2_328 [IorD] IorD_bF$buf7 d_lut_BUFX2
ABUFX2_329 [IorD] IorD_bF$buf6 d_lut_BUFX2
ABUFX2_330 [IorD] IorD_bF$buf5 d_lut_BUFX2
ABUFX2_331 [IorD] IorD_bF$buf4 d_lut_BUFX2
ABUFX2_332 [IorD] IorD_bF$buf3 d_lut_BUFX2
ABUFX2_333 [IorD] IorD_bF$buf2 d_lut_BUFX2
ABUFX2_334 [IorD] IorD_bF$buf1 d_lut_BUFX2
ABUFX2_335 [IorD] IorD_bF$buf0 d_lut_BUFX2
ACLKBUF1_1 [clk_hier0_bF$buf9] clk_bF$buf113 d_lut_CLKBUF1
ACLKBUF1_2 [clk_hier0_bF$buf8] clk_bF$buf112 d_lut_CLKBUF1
ACLKBUF1_3 [clk_hier0_bF$buf7] clk_bF$buf111 d_lut_CLKBUF1
ACLKBUF1_4 [clk_hier0_bF$buf6] clk_bF$buf110 d_lut_CLKBUF1
ACLKBUF1_5 [clk_hier0_bF$buf5] clk_bF$buf109 d_lut_CLKBUF1
ACLKBUF1_6 [clk_hier0_bF$buf4] clk_bF$buf108 d_lut_CLKBUF1
ACLKBUF1_7 [clk_hier0_bF$buf3] clk_bF$buf107 d_lut_CLKBUF1
ACLKBUF1_8 [clk_hier0_bF$buf2] clk_bF$buf106 d_lut_CLKBUF1
ACLKBUF1_9 [clk_hier0_bF$buf1] clk_bF$buf105 d_lut_CLKBUF1
ACLKBUF1_10 [clk_hier0_bF$buf0] clk_bF$buf104 d_lut_CLKBUF1
ACLKBUF1_11 [clk_hier0_bF$buf9] clk_bF$buf103 d_lut_CLKBUF1
ACLKBUF1_12 [clk_hier0_bF$buf8] clk_bF$buf102 d_lut_CLKBUF1
ACLKBUF1_13 [clk_hier0_bF$buf7] clk_bF$buf101 d_lut_CLKBUF1
ACLKBUF1_14 [clk_hier0_bF$buf6] clk_bF$buf100 d_lut_CLKBUF1
ACLKBUF1_15 [clk_hier0_bF$buf5] clk_bF$buf99 d_lut_CLKBUF1
ACLKBUF1_16 [clk_hier0_bF$buf4] clk_bF$buf98 d_lut_CLKBUF1
ACLKBUF1_17 [clk_hier0_bF$buf3] clk_bF$buf97 d_lut_CLKBUF1
ACLKBUF1_18 [clk_hier0_bF$buf2] clk_bF$buf96 d_lut_CLKBUF1
ACLKBUF1_19 [clk_hier0_bF$buf1] clk_bF$buf95 d_lut_CLKBUF1
ACLKBUF1_20 [clk_hier0_bF$buf0] clk_bF$buf94 d_lut_CLKBUF1
ACLKBUF1_21 [clk_hier0_bF$buf9] clk_bF$buf93 d_lut_CLKBUF1
ACLKBUF1_22 [clk_hier0_bF$buf8] clk_bF$buf92 d_lut_CLKBUF1
ACLKBUF1_23 [clk_hier0_bF$buf7] clk_bF$buf91 d_lut_CLKBUF1
ACLKBUF1_24 [clk_hier0_bF$buf6] clk_bF$buf90 d_lut_CLKBUF1
ACLKBUF1_25 [clk_hier0_bF$buf5] clk_bF$buf89 d_lut_CLKBUF1
ACLKBUF1_26 [clk_hier0_bF$buf4] clk_bF$buf88 d_lut_CLKBUF1
ACLKBUF1_27 [clk_hier0_bF$buf3] clk_bF$buf87 d_lut_CLKBUF1
ACLKBUF1_28 [clk_hier0_bF$buf2] clk_bF$buf86 d_lut_CLKBUF1
ACLKBUF1_29 [clk_hier0_bF$buf1] clk_bF$buf85 d_lut_CLKBUF1
ACLKBUF1_30 [clk_hier0_bF$buf0] clk_bF$buf84 d_lut_CLKBUF1
ACLKBUF1_31 [clk_hier0_bF$buf9] clk_bF$buf83 d_lut_CLKBUF1
ACLKBUF1_32 [clk_hier0_bF$buf8] clk_bF$buf82 d_lut_CLKBUF1
ACLKBUF1_33 [clk_hier0_bF$buf7] clk_bF$buf81 d_lut_CLKBUF1
ACLKBUF1_34 [clk_hier0_bF$buf6] clk_bF$buf80 d_lut_CLKBUF1
ACLKBUF1_35 [clk_hier0_bF$buf5] clk_bF$buf79 d_lut_CLKBUF1
ACLKBUF1_36 [clk_hier0_bF$buf4] clk_bF$buf78 d_lut_CLKBUF1
ACLKBUF1_37 [clk_hier0_bF$buf3] clk_bF$buf77 d_lut_CLKBUF1
ACLKBUF1_38 [clk_hier0_bF$buf2] clk_bF$buf76 d_lut_CLKBUF1
ACLKBUF1_39 [clk_hier0_bF$buf1] clk_bF$buf75 d_lut_CLKBUF1
ACLKBUF1_40 [clk_hier0_bF$buf0] clk_bF$buf74 d_lut_CLKBUF1
ACLKBUF1_41 [clk_hier0_bF$buf9] clk_bF$buf73 d_lut_CLKBUF1
ACLKBUF1_42 [clk_hier0_bF$buf8] clk_bF$buf72 d_lut_CLKBUF1
ACLKBUF1_43 [clk_hier0_bF$buf7] clk_bF$buf71 d_lut_CLKBUF1
ACLKBUF1_44 [clk_hier0_bF$buf6] clk_bF$buf70 d_lut_CLKBUF1
ACLKBUF1_45 [clk_hier0_bF$buf5] clk_bF$buf69 d_lut_CLKBUF1
ACLKBUF1_46 [clk_hier0_bF$buf4] clk_bF$buf68 d_lut_CLKBUF1
ACLKBUF1_47 [clk_hier0_bF$buf3] clk_bF$buf67 d_lut_CLKBUF1
ACLKBUF1_48 [clk_hier0_bF$buf2] clk_bF$buf66 d_lut_CLKBUF1
ACLKBUF1_49 [clk_hier0_bF$buf1] clk_bF$buf65 d_lut_CLKBUF1
ACLKBUF1_50 [clk_hier0_bF$buf0] clk_bF$buf64 d_lut_CLKBUF1
ACLKBUF1_51 [clk_hier0_bF$buf9] clk_bF$buf63 d_lut_CLKBUF1
ACLKBUF1_52 [clk_hier0_bF$buf8] clk_bF$buf62 d_lut_CLKBUF1
ACLKBUF1_53 [clk_hier0_bF$buf7] clk_bF$buf61 d_lut_CLKBUF1
ACLKBUF1_54 [clk_hier0_bF$buf6] clk_bF$buf60 d_lut_CLKBUF1
ACLKBUF1_55 [clk_hier0_bF$buf5] clk_bF$buf59 d_lut_CLKBUF1
ACLKBUF1_56 [clk_hier0_bF$buf4] clk_bF$buf58 d_lut_CLKBUF1
ACLKBUF1_57 [clk_hier0_bF$buf3] clk_bF$buf57 d_lut_CLKBUF1
ACLKBUF1_58 [clk_hier0_bF$buf2] clk_bF$buf56 d_lut_CLKBUF1
ACLKBUF1_59 [clk_hier0_bF$buf1] clk_bF$buf55 d_lut_CLKBUF1
ACLKBUF1_60 [clk_hier0_bF$buf0] clk_bF$buf54 d_lut_CLKBUF1
ACLKBUF1_61 [clk_hier0_bF$buf9] clk_bF$buf53 d_lut_CLKBUF1
ACLKBUF1_62 [clk_hier0_bF$buf8] clk_bF$buf52 d_lut_CLKBUF1
ACLKBUF1_63 [clk_hier0_bF$buf7] clk_bF$buf51 d_lut_CLKBUF1
ACLKBUF1_64 [clk_hier0_bF$buf6] clk_bF$buf50 d_lut_CLKBUF1
ACLKBUF1_65 [clk_hier0_bF$buf5] clk_bF$buf49 d_lut_CLKBUF1
ACLKBUF1_66 [clk_hier0_bF$buf4] clk_bF$buf48 d_lut_CLKBUF1
ACLKBUF1_67 [clk_hier0_bF$buf3] clk_bF$buf47 d_lut_CLKBUF1
ACLKBUF1_68 [clk_hier0_bF$buf2] clk_bF$buf46 d_lut_CLKBUF1
ACLKBUF1_69 [clk_hier0_bF$buf1] clk_bF$buf45 d_lut_CLKBUF1
ACLKBUF1_70 [clk_hier0_bF$buf0] clk_bF$buf44 d_lut_CLKBUF1
ACLKBUF1_71 [clk_hier0_bF$buf9] clk_bF$buf43 d_lut_CLKBUF1
ACLKBUF1_72 [clk_hier0_bF$buf8] clk_bF$buf42 d_lut_CLKBUF1
ACLKBUF1_73 [clk_hier0_bF$buf7] clk_bF$buf41 d_lut_CLKBUF1
ACLKBUF1_74 [clk_hier0_bF$buf6] clk_bF$buf40 d_lut_CLKBUF1
ACLKBUF1_75 [clk_hier0_bF$buf5] clk_bF$buf39 d_lut_CLKBUF1
ACLKBUF1_76 [clk_hier0_bF$buf4] clk_bF$buf38 d_lut_CLKBUF1
ACLKBUF1_77 [clk_hier0_bF$buf3] clk_bF$buf37 d_lut_CLKBUF1
ACLKBUF1_78 [clk_hier0_bF$buf2] clk_bF$buf36 d_lut_CLKBUF1
ACLKBUF1_79 [clk_hier0_bF$buf1] clk_bF$buf35 d_lut_CLKBUF1
ACLKBUF1_80 [clk_hier0_bF$buf0] clk_bF$buf34 d_lut_CLKBUF1
ACLKBUF1_81 [clk_hier0_bF$buf9] clk_bF$buf33 d_lut_CLKBUF1
ACLKBUF1_82 [clk_hier0_bF$buf8] clk_bF$buf32 d_lut_CLKBUF1
ACLKBUF1_83 [clk_hier0_bF$buf7] clk_bF$buf31 d_lut_CLKBUF1
ACLKBUF1_84 [clk_hier0_bF$buf6] clk_bF$buf30 d_lut_CLKBUF1
ACLKBUF1_85 [clk_hier0_bF$buf5] clk_bF$buf29 d_lut_CLKBUF1
ACLKBUF1_86 [clk_hier0_bF$buf4] clk_bF$buf28 d_lut_CLKBUF1
ACLKBUF1_87 [clk_hier0_bF$buf3] clk_bF$buf27 d_lut_CLKBUF1
ACLKBUF1_88 [clk_hier0_bF$buf2] clk_bF$buf26 d_lut_CLKBUF1
ACLKBUF1_89 [clk_hier0_bF$buf1] clk_bF$buf25 d_lut_CLKBUF1
ACLKBUF1_90 [clk_hier0_bF$buf0] clk_bF$buf24 d_lut_CLKBUF1
ACLKBUF1_91 [clk_hier0_bF$buf9] clk_bF$buf23 d_lut_CLKBUF1
ACLKBUF1_92 [clk_hier0_bF$buf8] clk_bF$buf22 d_lut_CLKBUF1
ACLKBUF1_93 [clk_hier0_bF$buf7] clk_bF$buf21 d_lut_CLKBUF1
ACLKBUF1_94 [clk_hier0_bF$buf6] clk_bF$buf20 d_lut_CLKBUF1
ACLKBUF1_95 [clk_hier0_bF$buf5] clk_bF$buf19 d_lut_CLKBUF1
ACLKBUF1_96 [clk_hier0_bF$buf4] clk_bF$buf18 d_lut_CLKBUF1
ACLKBUF1_97 [clk_hier0_bF$buf3] clk_bF$buf17 d_lut_CLKBUF1
ACLKBUF1_98 [clk_hier0_bF$buf2] clk_bF$buf16 d_lut_CLKBUF1
ACLKBUF1_99 [clk_hier0_bF$buf1] clk_bF$buf15 d_lut_CLKBUF1
ACLKBUF1_100 [clk_hier0_bF$buf0] clk_bF$buf14 d_lut_CLKBUF1
ACLKBUF1_101 [clk_hier0_bF$buf9] clk_bF$buf13 d_lut_CLKBUF1
ACLKBUF1_102 [clk_hier0_bF$buf8] clk_bF$buf12 d_lut_CLKBUF1
ACLKBUF1_103 [clk_hier0_bF$buf7] clk_bF$buf11 d_lut_CLKBUF1