* NGSPICE file created from FIR.ext - technology: scmos

* Black-box entry subcircuit for FILL abstract view
.subckt FILL gnd vdd
.ends

* Black-box entry subcircuit for OAI21X1 abstract view
.subckt OAI21X1 A B C gnd Y vdd
.ends

* Black-box entry subcircuit for NOR2X1 abstract view
.subckt NOR2X1 A B gnd Y vdd
.ends

* Black-box entry subcircuit for CLKBUF1 abstract view
.subckt CLKBUF1 A gnd Y vdd
.ends

* Black-box entry subcircuit for NAND2X1 abstract view
.subckt NAND2X1 A B gnd Y vdd
.ends

* Black-box entry subcircuit for NAND3X1 abstract view
.subckt NAND3X1 A B C gnd Y vdd
.ends

* Black-box entry subcircuit for INVX1 abstract view
.subckt INVX1 A gnd Y vdd
.ends

* Black-box entry subcircuit for DFFPOSX1 abstract view
.subckt DFFPOSX1 Q CLK D gnd vdd
.ends

* Black-box entry subcircuit for AOI21X1 abstract view
.subckt AOI21X1 A B C gnd Y vdd
.ends

* Black-box entry subcircuit for BUFX2 abstract view
.subckt BUFX2 A gnd Y vdd
.ends

* Black-box entry subcircuit for OAI22X1 abstract view
.subckt OAI22X1 A B C D gnd Y vdd
.ends

* Black-box entry subcircuit for DFFSR abstract view
.subckt DFFSR Q CLK R S D gnd vdd
.ends

* Black-box entry subcircuit for XOR2X1 abstract view
.subckt XOR2X1 A B gnd Y vdd
.ends

* Black-box entry subcircuit for OR2X2 abstract view
.subckt OR2X2 A B gnd Y vdd
.ends

* Black-box entry subcircuit for NOR3X1 abstract view
.subckt NOR3X1 A B C gnd Y vdd
.ends

* Black-box entry subcircuit for AND2X2 abstract view
.subckt AND2X2 A B gnd Y vdd
.ends

* Black-box entry subcircuit for AOI22X1 abstract view
.subckt AOI22X1 A B C D gnd Y vdd
.ends

* Black-box entry subcircuit for XNOR2X1 abstract view
.subckt XNOR2X1 A B gnd Y vdd
.ends

.subckt FIR clk rst din[0] din[1] din[2] din[3] din[4] din[5] din[6] din[7] dout[0]
+ dout[1] dout[2] dout[3] dout[4] dout[5] dout[6] dout[7]
XFILL_8_CLKBUF1_8 BUFX2_5/gnd DFFSR_6/S FILL
XFILL_2_DFFSR_25 BUFX2_8/gnd DFFSR_25/S FILL
XFILL_22_DFFSR_143 BUFX2_8/gnd DFFSR_25/S FILL
XFILL_19_DFFSR_18 DFFSR_9/gnd DFFSR_9/S FILL
XFILL_12_DFFSR_146 DFFSR_89/gnd DFFSR_92/S FILL
XFILL_2_INVX1_297 DFFSR_73/gnd DFFSR_11/S FILL
XFILL_1_NOR2X1_6 BUFX2_17/gnd DFFSR_57/S FILL
XFILL_19_CLKBUF1_11 BUFX2_7/gnd DFFSR_54/S FILL
XFILL_8_DFFSR_140 DFFSR_71/gnd DFFSR_10/S FILL
XFILL_43_DFFSR_75 INVX1_4/gnd DFFSR_51/S FILL
XFILL_18_CLKBUF1_14 BUFX2_43/A DFFSR_23/S FILL
XFILL_49_DFFSR_171 BUFX2_19/gnd DFFSR_52/S FILL
XFILL_5_OAI21X1_256 INVX1_2/gnd DFFSR_51/S FILL
XFILL_40_2_0 DFFSR_3/gnd DFFSR_65/S FILL
XFILL_39_DFFSR_174 BUFX2_43/A DFFSR_97/S FILL
XFILL_17_CLKBUF1_17 INVX1_94/gnd DFFSR_25/S FILL
XFILL_1_INVX1_117 INVX1_4/gnd DFFSR_51/S FILL
XFILL_7_NAND3X1_106 BUFX2_5/gnd DFFSR_6/S FILL
XFILL_27_DFFSR_25 BUFX2_8/gnd DFFSR_25/S FILL
XFILL_29_DFFSR_177 DFFSR_5/gnd DFFSR_5/S FILL
XFILL_16_CLKBUF1_20 INVX1_4/gnd DFFSR_51/S FILL
XFILL_16_DFFSR_65 DFFSR_3/gnd DFFSR_65/S FILL
XFILL_38_4_1 BUFX2_16/gnd DFFSR_11/S FILL
XFILL_15_CLKBUF1_23 INVX1_89/gnd DFFSR_2/S FILL
XFILL_11_DFFPOSX1_10 INVX1_8/gnd DFFSR_5/S FILL
XFILL_19_DFFSR_180 BUFX2_17/gnd DFFSR_7/S FILL
XFILL_6_OAI21X1_190 BUFX2_5/gnd DFFSR_6/S FILL
XFILL_3_XOR2X1_2 BUFX2_8/gnd DFFSR_10/S FILL
XOAI21X1_226 OR2X2_2/A AOI22X1_13/Y OAI21X1_223/C BUFX2_6/gnd NAND3X1_71/C DFFSR_91/S
+ OAI21X1
XFILL_6_OAI21X1_7 INVX1_8/gnd DFFSR_5/S FILL
XFILL_23_DFFSR_4 INVX1_4/gnd DFFSR_4/S FILL
XFILL_7_OAI21X1_124 DFFSR_79/gnd DFFSR_36/S FILL
XFILL_42_DFFSR_101 DFFSR_73/gnd DFFSR_57/S FILL
XFILL_7_DFFSR_79 DFFSR_79/gnd DFFSR_36/S FILL
XFILL_5_DFFSR_177 DFFSR_5/gnd DFFSR_5/S FILL
XFILL_24_DFFSR_72 BUFX2_17/gnd DFFSR_7/S FILL
XFILL_35_DFFSR_32 INVX1_2/gnd DFFSR_1/S FILL
XFILL_32_DFFSR_104 INVX1_4/gnd DFFSR_4/S FILL
XFILL_22_DFFSR_107 BUFX2_36/A DFFSR_8/S FILL
XFILL_1_DFFPOSX1_21 BUFX2_5/gnd DFFSR_23/S FILL
XFILL_12_DFFSR_110 DFFSR_73/gnd DFFSR_57/S FILL
XFILL_6_BUFX2_17 BUFX2_17/gnd DFFSR_57/S FILL
XFILL_2_INVX1_261 BUFX2_19/gnd DFFSR_52/S FILL
XFILL_5_OAI21X1_220 BUFX2_43/A DFFSR_97/S FILL
XFILL_43_DFFSR_39 DFFSR_79/gnd DFFSR_45/S FILL
XFILL_32_DFFSR_79 DFFSR_79/gnd DFFSR_36/S FILL
XFILL_8_DFFSR_104 INVX1_4/gnd DFFSR_4/S FILL
XFILL_49_DFFSR_135 BUFX2_43/A DFFSR_97/S FILL
XFILL_16_DFFSR_29 INVX1_4/gnd DFFSR_4/S FILL
XFILL_39_DFFSR_138 DFFSR_73/gnd DFFSR_11/S FILL
XFILL_29_DFFSR_141 INVX1_94/gnd DFFSR_25/S FILL
XFILL_46_1_2 DFFSR_1/gnd DFFSR_1/S FILL
XFILL_6_OAI21X1_154 BUFX2_37/A DFFSR_8/S FILL
XFILL_19_DFFSR_144 INVX1_8/gnd DFFSR_5/S FILL
XFILL_5_CLKBUF1_9 BUFX2_17/gnd DFFSR_7/S FILL
XFILL_20_DFFPOSX1_29 DFFSR_1/gnd DFFSR_9/S FILL
XNOR2X1_26 NOR2X1_26/A NOR2X1_26/B DFFSR_73/gnd NOR2X1_26/Y DFFSR_11/S NOR2X1
XFILL_4_NOR2X1_23 DFFSR_79/gnd DFFSR_45/S FILL
XFILL_40_DFFSR_86 DFFSR_1/gnd DFFSR_9/S FILL
XOAI21X1_190 INVX1_214/Y INVX1_231/Y NAND2X1_190/Y BUFX2_5/gnd OAI21X1_190/Y DFFSR_6/S
+ OAI21X1
XFILL_6_NAND2X1_268 BUFX2_37/A DFFSR_8/S FILL
XFILL_3_INVX1_405 BUFX2_7/gnd DFFSR_54/S FILL
XFILL_13_DFFSR_76 BUFX2_7/gnd DFFSR_54/S FILL
XFILL_7_DFFSR_43 INVX1_94/gnd DFFSR_25/S FILL
XFILL_5_DFFSR_141 INVX1_94/gnd DFFSR_25/S FILL
XFILL_24_DFFSR_36 DFFSR_79/gnd DFFSR_36/S FILL
XFILL_46_DFFSR_172 BUFX2_37/A DFFSR_8/S FILL
XFILL_14_0_0 BUFX2_37/A DFFSR_8/S FILL
XFILL_36_DFFSR_175 INVX1_23/gnd DFFSR_91/S FILL
XFILL_4_OAI21X1_250 DFFSR_79/gnd DFFSR_36/S FILL
XFILL_26_DFFSR_178 DFFSR_1/gnd DFFSR_9/S FILL
XFILL_16_DFFSR_181 INVX1_23/gnd DFFSR_186/S FILL
XFILL_12_2_1 BUFX2_36/A DFFSR_6/S FILL
XFILL_2_INVX1_225 BUFX2_19/gnd DFFSR_54/S FILL
XFILL_48_DFFSR_93 INVX1_2/gnd DFFSR_51/S FILL
XFILL_6_NAND3X1_100 BUFX2_6/gnd DFFSR_14/S FILL
XFILL_10_4_2 BUFX2_5/gnd DFFSR_23/S FILL
XFILL_9_AND2X2_2 BUFX2_7/gnd DFFSR_54/S FILL
XFILL_7_CLKBUF1_11 BUFX2_7/gnd DFFSR_54/S FILL
XFILL_21_DFFSR_83 BUFX2_19/gnd DFFSR_54/S FILL
XFILL_4_INVX1_37 INVX1_94/gnd DFFSR_52/S FILL
XFILL_32_DFFSR_43 INVX1_94/gnd DFFSR_25/S FILL
XFILL_4_DFFSR_90 INVX1_2/gnd DFFSR_1/S FILL
XFILL_6_CLKBUF1_14 BUFX2_43/A DFFSR_23/S FILL
XFILL_3_OAI21X1_8 BUFX2_36/A DFFSR_6/S FILL
XFILL_5_OAI21X1_184 BUFX2_19/gnd DFFSR_52/S FILL
XCLKBUF1_14 clk BUFX2_43/A CLKBUF1_14/Y DFFSR_23/S CLKBUF1
XFILL_5_CLKBUF1_17 INVX1_94/gnd DFFSR_25/S FILL
XFILL_39_DFFSR_102 INVX1_8/gnd DFFSR_7/S FILL
XFILL_3_BUFX2_28 DFFSR_89/gnd DFFSR_186/S FILL
XFILL_29_DFFSR_105 DFFSR_89/gnd DFFSR_186/S FILL
XFILL_5_4 BUFX2_6/gnd DFFSR_91/S FILL
XFILL_2_DFFSR_178 DFFSR_1/gnd DFFSR_9/S FILL
XFILL_4_CLKBUF1_20 INVX1_4/gnd DFFSR_51/S FILL
XFILL_3_CLKBUF1_23 INVX1_89/gnd DFFSR_2/S FILL
XFILL_19_DFFSR_108 INVX1_89/gnd DFFSR_2/S FILL
XFILL_6_OAI21X1_118 DFFSR_73/gnd DFFSR_11/S FILL
XFILL_1_INVX1_84 DFFSR_9/gnd DFFSR_9/S FILL
XFILL_40_DFFSR_50 DFFSR_73/gnd DFFSR_11/S FILL
XFILL_0_DFFPOSX1_15 BUFX2_35/A DFFSR_14/S FILL
XOAI21X1_154 DFFSR_8/S INVX1_182/Y OAI21X1_154/C BUFX2_37/A DFFSR_154/D DFFSR_8/S
+ OAI21X1
XFILL_29_DFFSR_90 INVX1_2/gnd DFFSR_1/S FILL
XFILL_6_NAND2X1_232 BUFX2_7/gnd DFFSR_54/S FILL
XFILL_3_INVX1_369 DFFSR_5/gnd DFFSR_2/S FILL
XFILL_5_DFFSR_105 DFFSR_89/gnd DFFSR_186/S FILL
XFILL_13_DFFSR_40 DFFSR_5/gnd DFFSR_2/S FILL
XFILL_5_NAND3X1_130 BUFX2_19/gnd DFFSR_52/S FILL
XFILL_46_DFFSR_136 DFFSR_5/gnd DFFSR_5/S FILL
XFILL_4_OAI21X1_214 BUFX2_35/A DFFSR_97/S FILL
XNAND2X1_268 DFFSR_8/S DFFSR_165/Q BUFX2_37/A NAND2X1_268/Y DFFSR_8/S NAND2X1
XFILL_36_DFFSR_139 DFFSR_3/gnd DFFSR_4/S FILL
XFILL_2_INVX1_189 BUFX2_35/A DFFSR_14/S FILL
XFILL_26_DFFSR_142 BUFX2_19/gnd DFFSR_54/S FILL
XFILL_35_DFFSR_7 INVX1_8/gnd DFFSR_7/S FILL
XFILL_16_DFFSR_145 INVX1_23/gnd DFFSR_186/S FILL
XFILL_37_DFFSR_97 BUFX2_35/A DFFSR_97/S FILL
XFILL_48_DFFSR_57 DFFSR_73/gnd DFFSR_57/S FILL
XFILL_5_OAI21X1_148 DFFSR_89/gnd DFFSR_186/S FILL
XFILL_19_DFFPOSX1_23 INVX1_23/gnd DFFSR_91/S FILL
XFILL_4_DFFSR_54 BUFX2_7/gnd DFFSR_81/S FILL
XFILL_1_NOR2X1_24 BUFX2_8/gnd DFFSR_10/S FILL
XFILL_21_DFFSR_47 DFFSR_5/gnd DFFSR_2/S FILL
XFILL_10_DFFSR_87 DFFSR_3/gnd DFFSR_4/S FILL
XFILL_0_0_2 DFFSR_89/gnd DFFSR_92/S FILL
XNAND3X1_100 NAND3X1_98/B NAND3X1_98/C OR2X2_2/Y BUFX2_6/gnd AOI21X1_31/A DFFSR_14/S
+ NAND3X1
XFILL_2_DFFSR_142 BUFX2_19/gnd DFFSR_54/S FILL
XFILL_0_INVX1_406 DFFSR_3/gnd DFFSR_65/S FILL
XFILL_43_DFFSR_173 BUFX2_6/gnd DFFSR_91/S FILL
XFILL_5_NAND2X1_262 DFFSR_89/gnd DFFSR_92/S FILL
XFILL_33_DFFSR_176 BUFX2_16/gnd DFFSR_65/S FILL
XFILL_23_DFFSR_179 INVX1_2/gnd DFFSR_1/S FILL
XFILL_40_DFFSR_14 BUFX2_35/A DFFSR_14/S FILL
XFILL_29_DFFSR_54 BUFX2_7/gnd DFFSR_81/S FILL
XFILL_18_DFFSR_94 BUFX2_16/gnd DFFSR_65/S FILL
XFILL_1_INVX1_48 BUFX2_16/gnd DFFSR_65/S FILL
XFILL_13_DFFSR_182 INVX1_89/gnd DFFSR_36/S FILL
XFILL_47_2_0 DFFSR_1/gnd DFFSR_9/S FILL
XFILL_3_OAI21X1_244 DFFSR_3/gnd DFFSR_4/S FILL
XOAI21X1_118 BUFX2_17/Y INVX1_133/Y OAI21X1_118/C DFFSR_73/gnd DFFSR_118/D DFFSR_11/S
+ OAI21X1
XFILL_6_NAND2X1_196 BUFX2_7/gnd DFFSR_54/S FILL
XFILL_3_INVX1_333 DFFSR_5/gnd DFFSR_2/S FILL
XFILL_46_DFFSR_100 INVX1_23/gnd DFFSR_186/S FILL
XFILL_0_BUFX2_39 BUFX2_43/A DFFSR_97/S FILL
XFILL_0_OAI21X1_9 DFFSR_1/gnd DFFSR_9/S FILL
XFILL_45_4_1 INVX1_2/gnd DFFSR_1/S FILL
XNAND2X1_232 AND2X2_13/B AND2X2_13/A BUFX2_7/gnd NAND3X1_110/B DFFSR_54/S NAND2X1
XFILL_36_DFFSR_103 INVX1_8/gnd DFFSR_7/S FILL
XFILL_9_DFFSR_176 BUFX2_16/gnd DFFSR_65/S FILL
XFILL_4_OAI21X1_178 INVX1_94/gnd DFFSR_25/S FILL
XFILL_26_DFFSR_106 DFFSR_1/gnd DFFSR_1/S FILL
XFILL_16_DFFSR_109 BUFX2_6/gnd DFFSR_14/S FILL
XFILL_37_DFFSR_61 BUFX2_5/gnd DFFSR_6/S FILL
XFILL_2_INVX1_153 DFFSR_5/gnd DFFSR_2/S FILL
XFILL_48_DFFSR_21 INVX1_2/gnd DFFSR_1/S FILL
XFILL_4_DFFSR_18 DFFSR_9/gnd DFFSR_9/S FILL
XFILL_21_DFFSR_11 BUFX2_16/gnd DFFSR_11/S FILL
XFILL_10_DFFSR_51 INVX1_2/gnd DFFSR_51/S FILL
XFILL_5_OAI21X1_112 INVX1_4/gnd DFFSR_4/S FILL
XFILL_0_INVX1_370 BUFX2_36/A DFFSR_8/S FILL
XFILL_2_DFFSR_106 DFFSR_1/gnd DFFSR_1/S FILL
XFILL_45_DFFSR_68 BUFX2_35/A DFFSR_14/S FILL
XFILL_11_5_0 BUFX2_5/gnd DFFSR_6/S FILL
XFILL_5_NAND2X1_226 BUFX2_36/A DFFSR_6/S FILL
XFILL_43_DFFSR_137 BUFX2_7/gnd DFFSR_54/S FILL
XFILL_22_DFFSR_1 DFFSR_1/gnd DFFSR_1/S FILL
XFILL_33_DFFSR_140 DFFSR_71/gnd DFFSR_10/S FILL
XFILL_9_CLKBUF1_8 BUFX2_5/gnd DFFSR_6/S FILL
XFILL_23_DFFSR_143 BUFX2_8/gnd DFFSR_25/S FILL
XFILL_1_INVX1_12 DFFSR_71/gnd DFFSR_45/S FILL
XFILL_4_NAND3X1_124 DFFSR_5/gnd DFFSR_5/S FILL
XFILL_1_DFFSR_65 DFFSR_3/gnd DFFSR_65/S FILL
XFILL_13_DFFSR_146 DFFSR_89/gnd DFFSR_92/S FILL
XFILL_6_BUFX2_2 BUFX2_43/A DFFSR_23/S FILL
XFILL_29_DFFSR_18 DFFSR_9/gnd DFFSR_9/S FILL
XFILL_18_DFFSR_58 DFFSR_3/gnd DFFSR_4/S FILL
XFILL_3_OAI21X1_208 BUFX2_5/gnd DFFSR_6/S FILL
XFILL_6_NAND2X1_160 INVX1_8/gnd DFFSR_5/S FILL
XFILL_3_INVX1_297 DFFSR_73/gnd DFFSR_11/S FILL
XFILL_9_DFFSR_140 DFFSR_71/gnd DFFSR_10/S FILL
XFILL_18_DFFPOSX1_17 BUFX2_37/A DFFSR_8/S FILL
XNAND2X1_196 NAND2X1_195/B AND2X2_7/Y BUFX2_7/gnd NAND3X1_22/C DFFSR_54/S NAND2X1
XFILL_50_DFFSR_171 BUFX2_19/gnd DFFSR_52/S FILL
XFILL_4_OAI21X1_142 BUFX2_19/gnd DFFSR_52/S FILL
XFILL_40_DFFSR_174 BUFX2_43/A DFFSR_97/S FILL
XFILL_2_INVX1_117 INVX1_4/gnd DFFSR_51/S FILL
XFILL_37_DFFSR_25 BUFX2_8/gnd DFFSR_25/S FILL
XFILL_18_DFFPOSX1_2 INVX1_89/gnd DFFSR_36/S FILL
XFILL_30_DFFSR_177 DFFSR_5/gnd DFFSR_5/S FILL
XFILL_9_DFFSR_72 BUFX2_17/gnd DFFSR_7/S FILL
XFILL_26_DFFSR_65 DFFSR_3/gnd DFFSR_65/S FILL
XFILL_17_DFFPOSX1_5 DFFSR_73/gnd DFFSR_11/S FILL
XFILL_16_DFFPOSX1_8 DFFSR_79/gnd DFFSR_36/S FILL
XFILL_4_NAND2X1_256 DFFSR_5/gnd DFFSR_2/S FILL
XFILL_10_DFFSR_15 INVX1_8/gnd DFFSR_7/S FILL
XFILL_20_DFFSR_180 BUFX2_17/gnd DFFSR_7/S FILL
XFILL_10_DFFSR_183 DFFSR_89/gnd DFFSR_186/S FILL
XFILL_0_INVX1_334 BUFX2_7/gnd DFFSR_81/S FILL
XFILL_21_0_0 INVX1_94/gnd DFFSR_25/S FILL
XFILL_7_OAI21X1_7 INVX1_8/gnd DFFSR_5/S FILL
XFILL_2_OAI21X1_238 BUFX2_19/gnd DFFSR_52/S FILL
XFILL_8_DFFPOSX1_28 DFFSR_3/gnd DFFSR_65/S FILL
XFILL_43_DFFSR_101 DFFSR_73/gnd DFFSR_57/S FILL
XFILL_5_NAND2X1_190 BUFX2_35/A DFFSR_97/S FILL
XFILL_19_2_1 BUFX2_19/gnd DFFSR_52/S FILL
XFILL_6_DFFSR_177 DFFSR_5/gnd DFFSR_5/S FILL
XFILL_34_DFFSR_72 BUFX2_17/gnd DFFSR_7/S FILL
XFILL_45_DFFSR_32 INVX1_2/gnd DFFSR_1/S FILL
XFILL_33_DFFSR_104 INVX1_4/gnd DFFSR_4/S FILL
XFILL_1_1_0 DFFSR_89/gnd DFFSR_186/S FILL
XFILL_23_DFFSR_107 BUFX2_36/A DFFSR_8/S FILL
XFILL_17_4_2 BUFX2_7/gnd DFFSR_54/S FILL
XFILL_18_DFFSR_22 BUFX2_8/gnd DFFSR_10/S FILL
XFILL_1_DFFSR_29 INVX1_4/gnd DFFSR_4/S FILL
XFILL_3_OAI21X1_172 BUFX2_36/A DFFSR_6/S FILL
XFILL_10_OAI22X1_3 DFFSR_79/gnd DFFSR_45/S FILL
XFILL_6_NAND2X1_124 DFFSR_79/gnd DFFSR_36/S FILL
XFILL_13_DFFSR_110 DFFSR_73/gnd DFFSR_57/S FILL
XFILL_3_INVX1_261 BUFX2_19/gnd DFFSR_52/S FILL
XFILL_42_DFFSR_79 DFFSR_79/gnd DFFSR_36/S FILL
XNAND2X1_160 NAND3X1_1/C BUFX2_3/Y INVX1_8/gnd NAND2X1_160/Y DFFSR_5/S NAND2X1
XFILL_9_DFFSR_104 INVX1_4/gnd DFFSR_4/S FILL
XFILL_50_DFFSR_135 BUFX2_43/A DFFSR_97/S FILL
XFILL_3_NAND2X1_286 DFFSR_71/gnd DFFSR_45/S FILL
XFILL_4_OAI21X1_106 DFFSR_1/gnd DFFSR_9/S FILL
XFILL_15_DFFSR_69 BUFX2_43/A DFFSR_23/S FILL
XFILL_9_DFFSR_36 DFFSR_79/gnd DFFSR_36/S FILL
XFILL_26_DFFSR_29 INVX1_4/gnd DFFSR_4/S FILL
XFILL_40_DFFSR_138 DFFSR_73/gnd DFFSR_11/S FILL
XFILL_30_DFFSR_141 INVX1_94/gnd DFFSR_25/S FILL
XFILL_4_NAND2X1_220 BUFX2_35/A DFFSR_14/S FILL
XFILL_20_DFFSR_144 INVX1_8/gnd DFFSR_5/S FILL
XFILL_6_CLKBUF1_9 BUFX2_17/gnd DFFSR_7/S FILL
XFILL_2_XOR2X1_6 DFFSR_89/gnd DFFSR_186/S FILL
XFILL_10_DFFSR_147 DFFSR_89/gnd DFFSR_186/S FILL
XFILL_13_DFFSR_8 BUFX2_36/A DFFSR_8/S FILL
XFILL_3_NAND3X1_118 DFFSR_79/gnd DFFSR_45/S FILL
XFILL_5_NOR2X1_23 DFFSR_79/gnd DFFSR_45/S FILL
XFILL_50_DFFSR_86 DFFSR_1/gnd DFFSR_9/S FILL
XINVX1_408 NAND2X1_3/B DFFSR_9/gnd INVX1_408/Y DFFSR_9/S INVX1
XFILL_0_INVX1_298 DFFSR_3/gnd DFFSR_65/S FILL
XFILL_2_OAI21X1_202 BUFX2_35/A DFFSR_14/S FILL
XFILL_5_NAND2X1_154 BUFX2_37/A DFFSR_8/S FILL
XFILL_23_DFFSR_76 BUFX2_7/gnd DFFSR_54/S FILL
XFILL_6_DFFSR_83 BUFX2_19/gnd DFFSR_54/S FILL
XFILL_6_DFFSR_141 INVX1_94/gnd DFFSR_25/S FILL
XFILL_34_DFFSR_36 DFFSR_79/gnd DFFSR_36/S FILL
XFILL_47_DFFSR_172 BUFX2_37/A DFFSR_8/S FILL
XFILL_37_DFFSR_175 INVX1_23/gnd DFFSR_91/S FILL
XFILL_5_BUFX2_21 BUFX2_5/gnd DFFSR_6/S FILL
XFILL_27_DFFSR_178 DFFSR_1/gnd DFFSR_9/S FILL
XFILL_17_DFFPOSX1_11 INVX1_4/gnd DFFSR_4/S FILL
XFILL_9_OAI21X1_97 BUFX2_5/gnd DFFSR_23/S FILL
XFILL_3_INVX1_225 BUFX2_19/gnd DFFSR_54/S FILL
XFILL_3_OAI21X1_136 DFFSR_5/gnd DFFSR_2/S FILL
XFILL_17_DFFSR_181 INVX1_23/gnd DFFSR_186/S FILL
XFILL_7_0_2 BUFX2_35/A DFFSR_97/S FILL
XFILL_34_DFFSR_4 INVX1_4/gnd DFFSR_4/S FILL
XFILL_3_INVX1_77 BUFX2_37/A DFFSR_81/S FILL
XFILL_31_DFFSR_83 BUFX2_19/gnd DFFSR_54/S FILL
XFILL_42_DFFSR_43 INVX1_94/gnd DFFSR_25/S FILL
XFILL_9_AOI21X1_13 INVX1_8/gnd DFFSR_7/S FILL
XFILL_4_OAI21X1_8 BUFX2_36/A DFFSR_6/S FILL
XNAND2X1_124 BUFX2_23/Y INVX1_131/A DFFSR_79/gnd NAND2X1_124/Y DFFSR_36/S NAND2X1
XFILL_3_NAND2X1_250 INVX1_8/gnd DFFSR_5/S FILL
XFILL_8_AOI21X1_16 BUFX2_43/A DFFSR_23/S FILL
XFILL_40_DFFSR_102 INVX1_8/gnd DFFSR_7/S FILL
XFILL_30_DFFSR_105 DFFSR_89/gnd DFFSR_186/S FILL
XFILL_9_1 BUFX2_43/A DFFSR_97/S FILL
XFILL_7_AOI21X1_19 BUFX2_19/gnd DFFSR_54/S FILL
XFILL_15_DFFSR_33 INVX1_94/gnd DFFSR_52/S FILL
XFILL_6_DFFPOSX1_2 INVX1_89/gnd DFFSR_36/S FILL
XFILL_3_DFFSR_178 DFFSR_1/gnd DFFSR_9/S FILL
XFILL_1_OAI21X1_232 BUFX2_35/A DFFSR_97/S FILL
XFILL_6_AOI21X1_22 BUFX2_43/A DFFSR_97/S FILL
XDFFPOSX1_2 NAND3X1_1/C CLKBUF1_10/Y XOR2X1_1/Y INVX1_89/gnd DFFSR_36/S DFFPOSX1
XFILL_20_DFFSR_108 INVX1_89/gnd DFFSR_2/S FILL
XFILL_5_DFFPOSX1_5 DFFSR_73/gnd DFFSR_11/S FILL
XFILL_5_AOI21X1_25 BUFX2_43/A DFFSR_97/S FILL
XAOI21X1_22 NAND3X1_37/Y NAND3X1_47/B OAI22X1_2/Y BUFX2_43/A AOI21X1_22/Y DFFSR_97/S
+ AOI21X1
XFILL_4_NAND2X1_184 BUFX2_37/A DFFSR_8/S FILL
XFILL_4_DFFPOSX1_8 DFFSR_79/gnd DFFSR_36/S FILL
XFILL_7_DFFPOSX1_22 BUFX2_16/gnd DFFSR_11/S FILL
XFILL_4_AOI21X1_28 DFFSR_71/gnd DFFSR_10/S FILL
XFILL_10_DFFSR_111 INVX1_8/gnd DFFSR_5/S FILL
XFILL_3_AOI21X1_31 INVX1_23/gnd DFFSR_186/S FILL
XFILL_39_DFFSR_90 INVX1_2/gnd DFFSR_1/S FILL
XFILL_0_INVX1_262 INVX1_2/gnd DFFSR_1/S FILL
XFILL_50_DFFSR_50 DFFSR_73/gnd DFFSR_11/S FILL
XINVX1_372 INVX1_97/A DFFSR_73/gnd INVX1_372/Y DFFSR_57/S INVX1
XFILL_2_AOI21X1_34 INVX1_94/gnd DFFSR_25/S FILL
XFILL_2_OAI21X1_166 DFFSR_3/gnd DFFSR_4/S FILL
XFILL_6_DFFSR_105 DFFSR_89/gnd DFFSR_186/S FILL
XFILL_1_AOI21X1_37 BUFX2_8/gnd DFFSR_25/S FILL
XFILL_6_DFFSR_47 DFFSR_5/gnd DFFSR_2/S FILL
XFILL_23_DFFSR_40 DFFSR_5/gnd DFFSR_2/S FILL
XFILL_12_DFFSR_80 BUFX2_16/gnd DFFSR_65/S FILL
XFILL_5_NAND2X1_118 DFFSR_73/gnd DFFSR_11/S FILL
XFILL_47_DFFSR_136 DFFSR_5/gnd DFFSR_5/S FILL
XFILL_0_AOI21X1_40 DFFSR_3/gnd DFFSR_4/S FILL
XBUFX2_25 INVX1_1/Y BUFX2_5/gnd BUFX2_25/Y DFFSR_6/S BUFX2
XFILL_37_DFFSR_139 DFFSR_3/gnd DFFSR_4/S FILL
XFILL_3_OAI21X1_100 INVX1_23/gnd DFFSR_91/S FILL
XFILL_26_DFFPOSX1_30 BUFX2_43/A DFFSR_97/S FILL
XFILL_14_7 BUFX2_36/A DFFSR_8/S FILL
XFILL_9_OAI21X1_61 BUFX2_36/A DFFSR_8/S FILL
XFILL_27_DFFSR_142 BUFX2_19/gnd DFFSR_54/S FILL
XFILL_2_NAND2X1_280 DFFSR_79/gnd DFFSR_45/S FILL
XFILL_17_DFFSR_145 INVX1_23/gnd DFFSR_186/S FILL
XFILL_3_INVX1_189 BUFX2_35/A DFFSR_14/S FILL
XFILL_47_DFFSR_97 BUFX2_35/A DFFSR_97/S FILL
XFILL_8_OAI21X1_64 BUFX2_16/gnd DFFSR_65/S FILL
XFILL_8_AND2X2_6 BUFX2_5/gnd DFFSR_6/S FILL
XFILL_6_NAND2X1_85 DFFSR_79/gnd DFFSR_45/S FILL
XFILL_7_OAI21X1_67 INVX1_2/gnd DFFSR_1/S FILL
XFILL_18_5_0 BUFX2_19/gnd DFFSR_54/S FILL
XFILL_2_NOR2X1_24 BUFX2_8/gnd DFFSR_10/S FILL
XFILL_3_INVX1_41 DFFSR_79/gnd DFFSR_45/S FILL
XFILL_0_OAI21X1_262 INVX1_89/gnd DFFSR_36/S FILL
XFILL_31_DFFSR_47 DFFSR_5/gnd DFFSR_2/S FILL
XFILL_20_DFFSR_87 DFFSR_3/gnd DFFSR_4/S FILL
XFILL_5_NAND2X1_88 DFFSR_3/gnd DFFSR_65/S FILL
XFILL_3_DFFSR_94 BUFX2_16/gnd DFFSR_65/S FILL
XFILL_3_NAND2X1_214 BUFX2_35/A DFFSR_97/S FILL
XNAND2X1_85 BUFX2_23/Y INVX1_87/A DFFSR_79/gnd OAI21X1_85/C DFFSR_45/S NAND2X1
XFILL_6_OAI21X1_70 DFFSR_73/gnd DFFSR_57/S FILL
XFILL_4_NAND2X1_91 BUFX2_5/gnd DFFSR_23/S FILL
XFILL_2_NAND3X1_112 DFFSR_71/gnd DFFSR_10/S FILL
XFILL_1_INVX1_406 DFFSR_3/gnd DFFSR_65/S FILL
XFILL_5_OAI21X1_73 DFFSR_73/gnd DFFSR_11/S FILL
XOAI21X1_70 BUFX2_17/Y INVX1_79/Y NAND2X1_70/Y DFFSR_73/gnd DFFSR_70/D DFFSR_57/S
+ OAI21X1
XFILL_44_DFFSR_173 BUFX2_6/gnd DFFSR_91/S FILL
XFILL_3_DFFSR_142 BUFX2_19/gnd DFFSR_54/S FILL
XFILL_4_OAI21X1_76 BUFX2_19/gnd DFFSR_54/S FILL
XFILL_2_BUFX2_32 DFFSR_9/gnd DFFSR_9/S FILL
XFILL_3_NAND2X1_94 BUFX2_16/gnd DFFSR_11/S FILL
XFILL_4_NAND2X1_148 DFFSR_89/gnd DFFSR_92/S FILL
XFILL_2_NAND2X1_97 BUFX2_5/gnd DFFSR_23/S FILL
XFILL_1_OAI21X1_196 INVX1_94/gnd DFFSR_25/S FILL
XFILL_3_OAI21X1_79 INVX1_89/gnd DFFSR_36/S FILL
XFILL_1_DFFSR_7 INVX1_8/gnd DFFSR_7/S FILL
XFILL_34_DFFSR_176 BUFX2_16/gnd DFFSR_65/S FILL
XFILL_2_OAI21X1_82 DFFSR_9/gnd DFFSR_9/S FILL
XFILL_0_INVX1_226 BUFX2_35/A DFFSR_14/S FILL
XFILL_50_DFFSR_14 BUFX2_35/A DFFSR_14/S FILL
XINVX1_336 DFFSR_97/Q BUFX2_5/gnd INVX1_336/Y DFFSR_6/S INVX1
XFILL_39_DFFSR_54 BUFX2_7/gnd DFFSR_81/S FILL
XFILL_1_OAI21X1_85 DFFSR_79/gnd DFFSR_45/S FILL
XFILL_0_INVX1_88 INVX1_2/gnd DFFSR_1/S FILL
XFILL_24_DFFSR_179 INVX1_2/gnd DFFSR_1/S FILL
XFILL_28_DFFSR_94 BUFX2_16/gnd DFFSR_65/S FILL
XFILL_14_DFFSR_182 INVX1_89/gnd DFFSR_36/S FILL
XFILL_0_OAI21X1_88 INVX1_4/gnd DFFSR_4/S FILL
XFILL_12_DFFSR_44 BUFX2_8/gnd DFFSR_10/S FILL
XBUFX2_3 BUFX2_2/A DFFSR_5/gnd BUFX2_3/Y DFFSR_2/S BUFX2
XFILL_4_INVX1_333 DFFSR_5/gnd DFFSR_2/S FILL
XFILL_2_OAI21X1_130 INVX1_4/gnd DFFSR_4/S FILL
XFILL_6_DFFSR_11 BUFX2_16/gnd DFFSR_11/S FILL
XFILL_47_DFFSR_100 INVX1_23/gnd DFFSR_186/S FILL
XFILL_1_OAI21X1_9 DFFSR_1/gnd DFFSR_9/S FILL
XFILL_37_DFFSR_103 INVX1_8/gnd DFFSR_7/S FILL
XFILL_2_NAND2X1_244 INVX1_94/gnd DFFSR_52/S FILL
XFILL_27_DFFSR_106 DFFSR_1/gnd DFFSR_1/S FILL
XFILL_0_DFFSR_179 INVX1_2/gnd DFFSR_1/S FILL
XFILL_47_DFFSR_61 BUFX2_5/gnd DFFSR_6/S FILL
XFILL_3_INVX1_153 DFFSR_5/gnd DFFSR_2/S FILL
XFILL_17_DFFSR_109 BUFX2_6/gnd DFFSR_14/S FILL
XFILL_8_OAI21X1_28 BUFX2_7/gnd DFFSR_81/S FILL
XFILL_28_0_0 INVX1_89/gnd DFFSR_36/S FILL
XFILL_7_OAI21X1_31 BUFX2_35/A DFFSR_97/S FILL
XFILL_3_DFFSR_58 DFFSR_3/gnd DFFSR_4/S FILL
XFILL_31_DFFSR_11 BUFX2_16/gnd DFFSR_11/S FILL
XFILL_6_NAND2X1_49 DFFSR_73/gnd DFFSR_11/S FILL
XFILL_0_OAI21X1_226 BUFX2_6/gnd DFFSR_91/S FILL
XFILL_6_DFFPOSX1_16 BUFX2_6/gnd DFFSR_91/S FILL
XFILL_3_NAND2X1_178 BUFX2_8/gnd DFFSR_25/S FILL
XFILL_5_NAND2X1_52 DFFSR_71/gnd DFFSR_10/S FILL
XFILL_26_2_1 DFFSR_79/gnd DFFSR_45/S FILL
XFILL_6_OAI21X1_34 DFFSR_1/gnd DFFSR_1/S FILL
XFILL_20_DFFSR_51 INVX1_2/gnd DFFSR_51/S FILL
XFILL_8_1_0 BUFX2_43/A DFFSR_97/S FILL
XFILL_1_INVX1_370 BUFX2_36/A DFFSR_8/S FILL
XFILL_5_OAI21X1_37 INVX1_89/gnd DFFSR_2/S FILL
XFILL_4_NAND2X1_55 INVX1_89/gnd DFFSR_2/S FILL
XNAND2X1_49 INVX1_47/A DFFSR_11/S DFFSR_73/gnd NAND2X1_49/Y DFFSR_11/S NAND2X1
XFILL_24_4_2 DFFSR_71/gnd DFFSR_10/S FILL
XFILL_4_OAI21X1_40 INVX1_8/gnd DFFSR_7/S FILL
XOAI21X1_34 DFFSR_1/S INVX1_39/Y NAND2X1_34/Y DFFSR_1/gnd DFFSR_34/D DFFSR_1/S OAI21X1
XFILL_3_DFFSR_106 DFFSR_1/gnd DFFSR_1/S FILL
XFILL_3_NAND2X1_58 DFFSR_3/gnd DFFSR_65/S FILL
XFILL_2_NAND2X1_61 BUFX2_37/A DFFSR_81/S FILL
XFILL_44_DFFSR_137 BUFX2_7/gnd DFFSR_54/S FILL
XFILL_3_OAI21X1_43 BUFX2_8/gnd DFFSR_10/S FILL
XFILL_46_DFFSR_7 INVX1_8/gnd DFFSR_7/S FILL
XFILL_1_OAI21X1_160 DFFSR_73/gnd DFFSR_57/S FILL
XFILL_6_3_1 BUFX2_35/A DFFSR_14/S FILL
XFILL_2_OAI21X1_46 BUFX2_37/A DFFSR_81/S FILL
XFILL_34_DFFSR_140 DFFSR_71/gnd DFFSR_10/S FILL
XFILL_4_NAND2X1_112 INVX1_4/gnd DFFSR_4/S FILL
XFILL_1_NAND2X1_64 BUFX2_16/gnd DFFSR_65/S FILL
XFILL_11_AOI22X1_12 BUFX2_6/gnd DFFSR_91/S FILL
XFILL_24_DFFSR_143 BUFX2_8/gnd DFFSR_25/S FILL
XFILL_0_NAND2X1_67 INVX1_2/gnd DFFSR_1/S FILL
XFILL_1_OAI21X1_49 DFFSR_73/gnd DFFSR_11/S FILL
XFILL_14_DFFSR_146 DFFSR_89/gnd DFFSR_92/S FILL
XFILL_4_5_2 BUFX2_6/gnd DFFSR_91/S FILL
XFILL_0_INVX1_190 BUFX2_43/A DFFSR_97/S FILL
XFILL_0_INVX1_52 BUFX2_37/A DFFSR_81/S FILL
XFILL_0_OAI21X1_52 INVX1_94/gnd DFFSR_25/S FILL
XFILL_17_DFFSR_98 DFFSR_9/gnd DFFSR_9/S FILL
XFILL_39_DFFSR_18 DFFSR_9/gnd DFFSR_9/S FILL
XFILL_28_DFFSR_58 DFFSR_3/gnd DFFSR_4/S FILL
XINVX1_300 INVX1_24/A BUFX2_16/gnd INVX1_300/Y DFFSR_11/S INVX1
XFILL_1_NAND2X1_274 BUFX2_17/gnd DFFSR_57/S FILL
XFILL_4_INVX1_297 DFFSR_73/gnd DFFSR_11/S FILL
XFILL_25_DFFPOSX1_24 BUFX2_43/A DFFSR_23/S FILL
XFILL_1_INVX1_9 BUFX2_36/A DFFSR_6/S FILL
XFILL_51_DFFSR_171 BUFX2_19/gnd DFFSR_52/S FILL
XFILL_41_DFFSR_174 BUFX2_43/A DFFSR_97/S FILL
XFILL_0_DFFSR_143 BUFX2_8/gnd DFFSR_25/S FILL
XFILL_2_NAND2X1_208 BUFX2_8/gnd DFFSR_10/S FILL
XFILL_47_DFFSR_25 BUFX2_8/gnd DFFSR_25/S FILL
XFILL_31_DFFSR_177 DFFSR_5/gnd DFFSR_5/S FILL
XFILL_3_INVX1_117 INVX1_4/gnd DFFSR_51/S FILL
XFILL_36_DFFSR_65 DFFSR_3/gnd DFFSR_65/S FILL
XFILL_1_NAND3X1_106 BUFX2_5/gnd DFFSR_6/S FILL
XFILL_6_NAND2X1_13 DFFSR_73/gnd DFFSR_11/S FILL
XFILL_0_OAI21X1_190 BUFX2_5/gnd DFFSR_6/S FILL
XFILL_3_DFFSR_22 BUFX2_8/gnd DFFSR_10/S FILL
XFILL_5_NAND2X1_16 DFFSR_79/gnd DFFSR_36/S FILL
XFILL_20_DFFSR_15 INVX1_8/gnd DFFSR_7/S FILL
XFILL_21_DFFSR_180 BUFX2_17/gnd DFFSR_7/S FILL
XFILL_11_DFFSR_183 DFFSR_89/gnd DFFSR_186/S FILL
XFILL_3_NAND2X1_142 DFFSR_79/gnd DFFSR_36/S FILL
XFILL_9_OAI21X1_245 DFFSR_5/gnd DFFSR_2/S FILL
XNAND2X1_13 DFFSR_11/S DFFSR_5/Q DFFSR_73/gnd NAND2X1_13/Y DFFSR_11/S NAND2X1
XFILL_1_INVX1_334 BUFX2_7/gnd DFFSR_81/S FILL
XFILL_8_OAI21X1_7 INVX1_8/gnd DFFSR_5/S FILL
XFILL_11_OAI22X1_60 INVX1_8/gnd DFFSR_5/S FILL
XFILL_4_NAND2X1_19 DFFSR_1/gnd DFFSR_1/S FILL
XDFFPOSX1_16 INVX1_402/A CLKBUF1_14/Y AOI21X1_42/Y BUFX2_6/gnd DFFSR_91/S DFFPOSX1
XFILL_3_NAND2X1_22 BUFX2_19/gnd DFFSR_52/S FILL
XFILL_2_NOR2X1_3 INVX1_94/gnd DFFSR_25/S FILL
XFILL_10_OAI22X1_63 BUFX2_8/gnd DFFSR_10/S FILL
XFILL_12_DFFSR_5 DFFSR_5/gnd DFFSR_5/S FILL
XFILL_44_DFFSR_101 DFFSR_73/gnd DFFSR_57/S FILL
XFILL_2_NAND2X1_25 DFFSR_79/gnd DFFSR_45/S FILL
XFILL_1_OAI21X1_124 DFFSR_79/gnd DFFSR_36/S FILL
XFILL_7_DFFSR_177 DFFSR_5/gnd DFFSR_5/S FILL
XFILL_44_DFFSR_72 BUFX2_17/gnd DFFSR_7/S FILL
XFILL_34_DFFSR_104 INVX1_4/gnd DFFSR_4/S FILL
XFILL_24_DFFSR_107 BUFX2_36/A DFFSR_8/S FILL
XFILL_1_NAND2X1_28 BUFX2_7/gnd DFFSR_81/S FILL
XFILL_2_OAI21X1_10 DFFSR_71/gnd DFFSR_45/S FILL
XFILL_0_NAND2X1_31 BUFX2_43/A DFFSR_97/S FILL
XFILL_0_INVX1_16 BUFX2_43/A DFFSR_23/S FILL
XFILL_0_DFFSR_69 BUFX2_43/A DFFSR_23/S FILL
XFILL_17_DFFSR_62 BUFX2_19/gnd DFFSR_52/S FILL
XFILL_8_NAND3X1_84 INVX1_94/gnd DFFSR_25/S FILL
XFILL_28_DFFSR_22 BUFX2_8/gnd DFFSR_10/S FILL
XINVX1_264 NOR2X1_1/A DFFSR_71/gnd INVX1_264/Y DFFSR_10/S INVX1
XFILL_0_INVX1_154 INVX1_8/gnd DFFSR_7/S FILL
XFILL_9_OAI22X1_66 BUFX2_17/gnd DFFSR_7/S FILL
XFILL_1_OAI21X1_13 BUFX2_16/gnd DFFSR_65/S FILL
XFILL_7_NAND3X1_87 INVX1_94/gnd DFFSR_52/S FILL
XFILL_1_NAND2X1_238 DFFSR_79/gnd DFFSR_36/S FILL
XFILL_0_OAI21X1_16 INVX1_89/gnd DFFSR_36/S FILL
XFILL_14_DFFSR_110 DFFSR_73/gnd DFFSR_57/S FILL
XFILL_6_NAND3X1_90 BUFX2_5/gnd DFFSR_23/S FILL
XFILL_4_INVX1_261 BUFX2_19/gnd DFFSR_52/S FILL
XFILL_5_NAND3X1_93 BUFX2_5/gnd DFFSR_23/S FILL
XNAND3X1_90 INVX1_258/A NAND3X1_90/B NAND3X1_90/C BUFX2_5/gnd NAND3X1_97/C DFFSR_23/S
+ NAND3X1
XFILL_4_NAND3X1_96 BUFX2_43/A DFFSR_97/S FILL
XFILL_33_DFFSR_1 DFFSR_1/gnd DFFSR_1/S FILL
XFILL_3_NAND3X1_99 BUFX2_6/gnd DFFSR_14/S FILL
XFILL_51_DFFSR_135 BUFX2_43/A DFFSR_97/S FILL
XFILL_2_NAND2X1_172 BUFX2_36/A DFFSR_6/S FILL
XFILL_0_DFFSR_107 BUFX2_36/A DFFSR_8/S FILL
XFILL_5_DFFPOSX1_10 INVX1_8/gnd DFFSR_5/S FILL
XFILL_25_DFFSR_69 BUFX2_43/A DFFSR_23/S FILL
XFILL_8_DFFSR_76 BUFX2_7/gnd DFFSR_54/S FILL
XFILL_36_DFFSR_29 INVX1_4/gnd DFFSR_4/S FILL
XFILL_41_DFFSR_138 DFFSR_73/gnd DFFSR_11/S FILL
XFILL_31_DFFSR_141 INVX1_94/gnd DFFSR_25/S FILL
XFILL_21_DFFSR_144 INVX1_8/gnd DFFSR_5/S FILL
XFILL_7_CLKBUF1_9 BUFX2_17/gnd DFFSR_7/S FILL
XFILL_14_DFFPOSX1_29 DFFSR_1/gnd DFFSR_9/S FILL
XFILL_11_DFFSR_147 DFFSR_89/gnd DFFSR_186/S FILL
XFILL_0_OAI21X1_154 BUFX2_37/A DFFSR_8/S FILL
XFILL_9_OAI21X1_209 BUFX2_17/gnd DFFSR_57/S FILL
XFILL_3_NAND2X1_106 DFFSR_1/gnd DFFSR_9/S FILL
XFILL_6_NOR2X1_23 DFFSR_79/gnd DFFSR_45/S FILL
XFILL_1_INVX1_298 DFFSR_3/gnd DFFSR_65/S FILL
XFILL_0_NAND2X1_268 BUFX2_37/A DFFSR_8/S FILL
XFILL_33_DFFSR_76 BUFX2_7/gnd DFFSR_54/S FILL
XFILL_44_DFFSR_36 DFFSR_79/gnd DFFSR_36/S FILL
XFILL_10_OAI22X1_27 DFFSR_79/gnd DFFSR_36/S FILL
XFILL_9_NAND3X1_45 BUFX2_35/A DFFSR_97/S FILL
XFILL_48_DFFSR_172 BUFX2_37/A DFFSR_8/S FILL
XFILL_24_DFFPOSX1_18 BUFX2_37/A DFFSR_8/S FILL
XFILL_7_DFFSR_141 INVX1_94/gnd DFFSR_25/S FILL
XFILL_38_DFFSR_175 INVX1_23/gnd DFFSR_91/S FILL
XFILL_8_NAND3X1_48 BUFX2_43/A DFFSR_23/S FILL
XFILL_9_OAI22X1_30 INVX1_94/gnd DFFSR_25/S FILL
XFILL_0_INVX1_118 BUFX2_37/A DFFSR_8/S FILL
XFILL_7_NAND3X1_51 BUFX2_7/gnd DFFSR_81/S FILL
XFILL_0_DFFSR_33 INVX1_94/gnd DFFSR_52/S FILL
XFILL_25_5_0 DFFSR_71/gnd DFFSR_45/S FILL
XINVX1_228 AOI21X1_3/Y DFFSR_5/gnd INVX1_228/Y DFFSR_2/S INVX1
XFILL_8_OAI22X1_33 DFFSR_73/gnd DFFSR_57/S FILL
XFILL_17_DFFSR_26 DFFSR_9/gnd DFFSR_9/S FILL
XFILL_1_NAND2X1_202 BUFX2_35/A DFFSR_97/S FILL
XFILL_6_NAND3X1_54 BUFX2_7/gnd DFFSR_54/S FILL
XFILL_4_INVX1_225 BUFX2_19/gnd DFFSR_54/S FILL
XFILL_7_OAI22X1_36 BUFX2_17/gnd DFFSR_57/S FILL
XFILL_28_DFFSR_178 DFFSR_1/gnd DFFSR_9/S FILL
XFILL_18_DFFSR_181 INVX1_23/gnd DFFSR_186/S FILL
XFILL_6_OAI22X1_39 BUFX2_37/A DFFSR_8/S FILL
XFILL_5_NAND3X1_57 BUFX2_19/gnd DFFSR_54/S FILL
XFILL_0_NAND3X1_100 BUFX2_6/gnd DFFSR_14/S FILL
XNAND3X1_54 NAND3X1_56/A NAND3X1_52/Y NAND3X1_53/Y BUFX2_7/gnd NAND3X1_54/Y DFFSR_54/S
+ NAND3X1
XFILL_4_NAND3X1_60 DFFSR_71/gnd DFFSR_10/S FILL
XFILL_5_OAI22X1_42 INVX1_8/gnd DFFSR_7/S FILL
XFILL_3_NAND3X1_63 BUFX2_43/A DFFSR_23/S FILL
XFILL_5_OAI21X1_8 BUFX2_36/A DFFSR_6/S FILL
XOAI22X1_39 INVX1_337/Y OAI22X1_39/B INVX1_336/Y OAI22X1_39/D BUFX2_37/A NOR2X1_29/B
+ DFFSR_8/S OAI22X1
XFILL_41_DFFSR_83 BUFX2_19/gnd DFFSR_54/S FILL
XFILL_4_OAI22X1_45 INVX1_89/gnd DFFSR_2/S FILL
XDFFSR_181 INVX1_411/A INVX1_1/A DFFSR_183/R DFFSR_186/S DFFSR_181/D INVX1_23/gnd
+ DFFSR_186/S DFFSR
XFILL_2_NAND3X1_66 BUFX2_6/gnd DFFSR_14/S FILL
XFILL_3_OAI22X1_48 BUFX2_37/A DFFSR_81/S FILL
XFILL_2_NAND2X1_136 DFFSR_5/gnd DFFSR_2/S FILL
XFILL_41_DFFSR_102 INVX1_8/gnd DFFSR_7/S FILL
XFILL_8_OAI21X1_239 INVX1_4/gnd DFFSR_4/S FILL
XFILL_31_DFFSR_105 DFFSR_89/gnd DFFSR_186/S FILL
XFILL_25_DFFSR_33 INVX1_94/gnd DFFSR_52/S FILL
XFILL_8_DFFSR_40 DFFSR_5/gnd DFFSR_2/S FILL
XFILL_4_DFFSR_178 DFFSR_1/gnd DFFSR_9/S FILL
XFILL_14_DFFSR_73 DFFSR_73/gnd DFFSR_11/S FILL
XFILL_1_NAND3X1_69 BUFX2_6/gnd DFFSR_14/S FILL
XFILL_2_OAI22X1_51 BUFX2_7/gnd DFFSR_81/S FILL
XNAND2X1_2 DFFSR_5/S INVX1_407/A INVX1_8/gnd OAI21X1_2/C DFFSR_5/S NAND2X1
XFILL_0_NAND3X1_72 BUFX2_5/gnd DFFSR_23/S FILL
XFILL_1_OAI22X1_54 BUFX2_8/gnd DFFSR_10/S FILL
XFILL_21_DFFSR_108 INVX1_89/gnd DFFSR_2/S FILL
XFILL_0_OAI21X1_118 DFFSR_73/gnd DFFSR_11/S FILL
XFILL_9_OAI21X1_173 BUFX2_6/gnd DFFSR_14/S FILL
XFILL_11_DFFSR_111 INVX1_8/gnd DFFSR_5/S FILL
XFILL_0_OAI22X1_57 BUFX2_17/gnd DFFSR_57/S FILL
XFILL_0_DFFSR_4 INVX1_4/gnd DFFSR_4/S FILL
XFILL_49_DFFSR_90 INVX1_2/gnd DFFSR_1/S FILL
XFILL_1_INVX1_262 INVX1_2/gnd DFFSR_1/S FILL
XOAI22X1_1 INVX1_213/Y NOR2X1_7/A INVX1_214/Y INVX1_216/Y BUFX2_36/A OAI22X1_1/Y DFFSR_8/S
+ OAI22X1
XFILL_7_DFFSR_105 DFFSR_89/gnd DFFSR_186/S FILL
XFILL_0_NAND2X1_232 BUFX2_7/gnd DFFSR_54/S FILL
XFILL_33_DFFSR_40 DFFSR_5/gnd DFFSR_2/S FILL
XFILL_5_DFFSR_87 DFFSR_3/gnd DFFSR_4/S FILL
XINVX1_74 DFFSR_65/Q DFFSR_3/gnd INVX1_74/Y DFFSR_4/S INVX1
XFILL_22_DFFSR_80 BUFX2_16/gnd DFFSR_65/S FILL
XFILL_48_DFFSR_136 DFFSR_5/gnd DFFSR_5/S FILL
XFILL_35_0_0 BUFX2_17/gnd DFFSR_57/S FILL
XINVX1_192 BUFX2_2/Y BUFX2_35/A INVX1_192/Y DFFSR_14/S INVX1
XFILL_8_NAND3X1_12 INVX1_94/gnd DFFSR_52/S FILL
XFILL_38_DFFSR_139 DFFSR_3/gnd DFFSR_4/S FILL
XFILL_4_BUFX2_25 BUFX2_5/gnd DFFSR_6/S FILL
XFILL_28_DFFSR_142 BUFX2_19/gnd DFFSR_54/S FILL
XFILL_7_NAND3X1_15 BUFX2_19/gnd DFFSR_52/S FILL
XFILL_33_2_1 INVX1_8/gnd DFFSR_7/S FILL
XFILL_1_NAND2X1_166 DFFSR_3/gnd DFFSR_65/S FILL
XFILL_18_DFFSR_145 INVX1_23/gnd DFFSR_186/S FILL
XFILL_4_INVX1_189 BUFX2_35/A DFFSR_14/S FILL
XFILL_6_NAND3X1_18 DFFSR_5/gnd DFFSR_5/S FILL
XFILL_24_DFFSR_8 BUFX2_36/A DFFSR_8/S FILL
XFILL_5_NAND3X1_21 BUFX2_7/gnd DFFSR_81/S FILL
XNAND3X1_18 INVX1_229/A NOR3X1_1/A INVX1_228/Y DFFSR_5/gnd INVX1_236/A DFFSR_5/S NAND3X1
XFILL_4_NAND3X1_24 BUFX2_37/A DFFSR_8/S FILL
XFILL_3_NOR2X1_24 BUFX2_8/gnd DFFSR_10/S FILL
XFILL_41_DFFSR_47 DFFSR_5/gnd DFFSR_2/S FILL
XFILL_2_INVX1_81 DFFSR_5/gnd DFFSR_2/S FILL
XFILL_31_4_2 DFFSR_5/gnd DFFSR_5/S FILL
XFILL_30_DFFSR_87 DFFSR_3/gnd DFFSR_4/S FILL