* XSpice netlist created from SPICE and liberty sources by spi2xspice.py
*SPICE netlist created from BLIF module FIR by blif2BSpice
.subckt FIR a_vdd a_gnd a_clk a_rst a_din_0_ a_din_1_ a_din_2_ a_din_3_ a_din_4_ a_din_5_ a_din_6_ a_din_7_ a_dout_0_ a_dout_1_ a_dout_2_ a_dout_3_ a_dout_4_ a_dout_5_ a_dout_6_ a_dout_7_
ACLKBUF1_1 [asr2.clk] asr2.clk_bF$buf7 d_lut_CLKBUF1
ACLKBUF1_2 [asr2.clk] asr2.clk_bF$buf6 d_lut_CLKBUF1
ACLKBUF1_3 [asr2.clk] asr2.clk_bF$buf5 d_lut_CLKBUF1
ACLKBUF1_4 [asr2.clk] asr2.clk_bF$buf4 d_lut_CLKBUF1
ACLKBUF1_5 [asr2.clk] asr2.clk_bF$buf3 d_lut_CLKBUF1
ACLKBUF1_6 [asr2.clk] asr2.clk_bF$buf2 d_lut_CLKBUF1
ACLKBUF1_7 [asr2.clk] asr2.clk_bF$buf1 d_lut_CLKBUF1
ACLKBUF1_8 [asr2.clk] asr2.clk_bF$buf0 d_lut_CLKBUF1
ACLKBUF1_9 [clk] clk_bF$buf7 d_lut_CLKBUF1
ACLKBUF1_10 [clk] clk_bF$buf6 d_lut_CLKBUF1
ACLKBUF1_11 [clk] clk_bF$buf5 d_lut_CLKBUF1
ACLKBUF1_12 [clk] clk_bF$buf4 d_lut_CLKBUF1
ACLKBUF1_13 [clk] clk_bF$buf3 d_lut_CLKBUF1
ACLKBUF1_14 [clk] clk_bF$buf2 d_lut_CLKBUF1
ACLKBUF1_15 [clk] clk_bF$buf1 d_lut_CLKBUF1
ACLKBUF1_16 [clk] clk_bF$buf0 d_lut_CLKBUF1
ABUFX2_1 [MAC.clr] MAC.clr_bF$buf3 d_lut_BUFX2
ABUFX2_2 [MAC.clr] MAC.clr_bF$buf2 d_lut_BUFX2
ABUFX2_3 [MAC.clr] MAC.clr_bF$buf1 d_lut_BUFX2
ABUFX2_4 [MAC.clr] MAC.clr_bF$buf0 d_lut_BUFX2
ACLKBUF1_17 [asr1.clk] asr1.clk_bF$buf8 d_lut_CLKBUF1
ACLKBUF1_18 [asr1.clk] asr1.clk_bF$buf7 d_lut_CLKBUF1
ACLKBUF1_19 [asr1.clk] asr1.clk_bF$buf6 d_lut_CLKBUF1
ACLKBUF1_20 [asr1.clk] asr1.clk_bF$buf5 d_lut_CLKBUF1
ACLKBUF1_21 [asr1.clk] asr1.clk_bF$buf4 d_lut_CLKBUF1
ACLKBUF1_22 [asr1.clk] asr1.clk_bF$buf3 d_lut_CLKBUF1
ACLKBUF1_23 [asr1.clk] asr1.clk_bF$buf2 d_lut_CLKBUF1
ACLKBUF1_24 [asr1.clk] asr1.clk_bF$buf1 d_lut_CLKBUF1
ACLKBUF1_25 [asr1.clk] asr1.clk_bF$buf0 d_lut_CLKBUF1
ABUFX2_5 [rst] rst_bF$buf5 d_lut_BUFX2
ABUFX2_6 [rst] rst_bF$buf4 d_lut_BUFX2
ABUFX2_7 [rst] rst_bF$buf3 d_lut_BUFX2
ABUFX2_8 [rst] rst_bF$buf2 d_lut_BUFX2
ABUFX2_9 [rst] rst_bF$buf1 d_lut_BUFX2
ABUFX2_10 [rst] rst_bF$buf0 d_lut_BUFX2
ABUFX2_11 [MAC.ROM_0_] MAC.ROM_0_bF$buf3_ d_lut_BUFX2
ABUFX2_12 [MAC.ROM_0_] MAC.ROM_0_bF$buf2_ d_lut_BUFX2
ABUFX2_13 [MAC.ROM_0_] MAC.ROM_0_bF$buf1_ d_lut_BUFX2
ABUFX2_14 [MAC.ROM_0_] MAC.ROM_0_bF$buf0_ d_lut_BUFX2
ABUFX2_15 [asr2.en] asr2.en_bF$buf10 d_lut_BUFX2
ABUFX2_16 [asr2.en] asr2.en_bF$buf9 d_lut_BUFX2
ABUFX2_17 [asr2.en] asr2.en_bF$buf8 d_lut_BUFX2
ABUFX2_18 [asr2.en] asr2.en_bF$buf7 d_lut_BUFX2
ABUFX2_19 [asr2.en] asr2.en_bF$buf6 d_lut_BUFX2
ABUFX2_20 [asr2.en] asr2.en_bF$buf5 d_lut_BUFX2
ABUFX2_21 [asr2.en] asr2.en_bF$buf4 d_lut_BUFX2
ABUFX2_22 [asr2.en] asr2.en_bF$buf3 d_lut_BUFX2
ABUFX2_23 [asr2.en] asr2.en_bF$buf2 d_lut_BUFX2
ABUFX2_24 [asr2.en] asr2.en_bF$buf1 d_lut_BUFX2
ABUFX2_25 [asr2.en] asr2.en_bF$buf0 d_lut_BUFX2
ANOR2X1_1 [up_counter.contador_1_ up_counter.contador_0_] _1_ d_lut_NOR2X1
ANOR2X1_2 [up_counter.contador_2_ rst_bF$buf5] _2_ d_lut_NOR2X1
AAND2X2_1 [_1_ _2_] _0_ d_lut_AND2X2
AINVX1_1 [asr1.clk_bF$buf8] asr2.en d_lut_INVX1
ABUFX2_26 [_3__0_] dout_0_ d_lut_BUFX2
ABUFX2_27 [_3__1_] dout_1_ d_lut_BUFX2
ABUFX2_28 [_3__2_] dout_2_ d_lut_BUFX2
ABUFX2_29 [_3__3_] dout_3_ d_lut_BUFX2
ABUFX2_30 [_3__4_] dout_4_ d_lut_BUFX2
ABUFX2_31 [_3__5_] dout_5_ d_lut_BUFX2
ABUFX2_32 [_3__6_] dout_6_ d_lut_BUFX2
ABUFX2_33 [_3__7_] dout_7_ d_lut_BUFX2
ADFFPOSX1_1 _0_ clk_bF$buf7 NULL NULL enable_asr NULL ddflop
AINVX1_2 [asr1.cables_1__0_] _6_ d_lut_INVX1
ANAND2X1_1 [asr1.cables_0__0_ vdd] _7_ d_lut_NAND2X1
AOAI21X1_1 [vdd _6_ _7_] _4__0_ d_lut_OAI21X1
AINVX1_3 [asr1.cables_1__1_] _8_ d_lut_INVX1
ANAND2X1_2 [vdd asr1.cables_0__1_] _9_ d_lut_NAND2X1
AOAI21X1_2 [vdd _8_ _9_] _4__1_ d_lut_OAI21X1
AINVX1_4 [asr1.cables_1__2_] _10_ d_lut_INVX1
ANAND2X1_3 [vdd asr1.cables_0__2_] _11_ d_lut_NAND2X1
AOAI21X1_3 [vdd _10_ _11_] _4__2_ d_lut_OAI21X1
AINVX1_5 [asr1.cables_1__3_] _12_ d_lut_INVX1
ANAND2X1_4 [vdd asr1.cables_0__3_] _13_ d_lut_NAND2X1
AOAI21X1_4 [vdd _12_ _13_] _4__3_ d_lut_OAI21X1
AINVX1_6 [asr1.cables_1__4_] _14_ d_lut_INVX1
ANAND2X1_5 [vdd asr1.cables_0__4_] _15_ d_lut_NAND2X1
AOAI21X1_5 [vdd _14_ _15_] _4__4_ d_lut_OAI21X1
AINVX1_7 [asr1.cables_1__5_] _16_ d_lut_INVX1
ANAND2X1_6 [vdd asr1.cables_0__5_] _17_ d_lut_NAND2X1
AOAI21X1_6 [vdd _16_ _17_] _4__5_ d_lut_OAI21X1
AINVX1_8 [asr1.cables_1__6_] _18_ d_lut_INVX1
ANAND2X1_7 [vdd asr1.cables_0__6_] _19_ d_lut_NAND2X1
AOAI21X1_7 [vdd _18_ _19_] _4__6_ d_lut_OAI21X1
AINVX1_9 [asr1.cables_1__7_] _20_ d_lut_INVX1
ANAND2X1_8 [vdd asr1.cables_0__7_] _21_ d_lut_NAND2X1
AOAI21X1_8 [vdd _20_ _21_] _4__7_ d_lut_OAI21X1
AINVX1_10 [rst_bF$buf4] _5_ d_lut_INVX1
ADFFSR_1 _4__0_ asr1.clk_bF$buf7 ~vdd ~_5_ asr1.cables_1__0_ NULL ddflop
ADFFSR_2 _4__1_ asr1.clk_bF$buf6 ~vdd ~_5_ asr1.cables_1__1_ NULL ddflop
ADFFSR_3 _4__2_ asr1.clk_bF$buf5 ~vdd ~_5_ asr1.cables_1__2_ NULL ddflop
ADFFSR_4 _4__3_ asr1.clk_bF$buf4 ~vdd ~_5_ asr1.cables_1__3_ NULL ddflop
ADFFSR_5 _4__4_ asr1.clk_bF$buf3 ~vdd ~_5_ asr1.cables_1__4_ NULL ddflop
ADFFSR_6 _4__5_ asr1.clk_bF$buf2 ~vdd ~_5_ asr1.cables_1__5_ NULL ddflop
ADFFSR_7 _4__6_ asr1.clk_bF$buf1 ~vdd ~_5_ asr1.cables_1__6_ NULL ddflop
ADFFSR_8 _4__7_ asr1.clk_bF$buf0 ~vdd ~_5_ asr1.cables_1__7_ NULL ddflop
AINVX1_11 [asr1.cables_2__0_] _24_ d_lut_INVX1
ANAND2X1_9 [asr1.cables_1__0_ vdd] _25_ d_lut_NAND2X1
AOAI21X1_9 [vdd _24_ _25_] _22__0_ d_lut_OAI21X1
AINVX1_12 [asr1.cables_2__1_] _26_ d_lut_INVX1
ANAND2X1_10 [vdd asr1.cables_1__1_] _27_ d_lut_NAND2X1
AOAI21X1_10 [vdd _26_ _27_] _22__1_ d_lut_OAI21X1
AINVX1_13 [asr1.cables_2__2_] _28_ d_lut_INVX1
ANAND2X1_11 [vdd asr1.cables_1__2_] _29_ d_lut_NAND2X1
AOAI21X1_11 [vdd _28_ _29_] _22__2_ d_lut_OAI21X1
AINVX1_14 [asr1.cables_2__3_] _30_ d_lut_INVX1
ANAND2X1_12 [vdd asr1.cables_1__3_] _31_ d_lut_NAND2X1
AOAI21X1_12 [vdd _30_ _31_] _22__3_ d_lut_OAI21X1
AINVX1_15 [asr1.cables_2__4_] _32_ d_lut_INVX1
ANAND2X1_13 [vdd asr1.cables_1__4_] _33_ d_lut_NAND2X1
AOAI21X1_13 [vdd _32_ _33_] _22__4_ d_lut_OAI21X1
AINVX1_16 [asr1.cables_2__5_] _34_ d_lut_INVX1
ANAND2X1_14 [vdd asr1.cables_1__5_] _35_ d_lut_NAND2X1
AOAI21X1_14 [vdd _34_ _35_] _22__5_ d_lut_OAI21X1
AINVX1_17 [asr1.cables_2__6_] _36_ d_lut_INVX1
ANAND2X1_15 [vdd asr1.cables_1__6_] _37_ d_lut_NAND2X1
AOAI21X1_15 [vdd _36_ _37_] _22__6_ d_lut_OAI21X1
AINVX1_18 [asr1.cables_2__7_] _38_ d_lut_INVX1
ANAND2X1_16 [vdd asr1.cables_1__7_] _39_ d_lut_NAND2X1
AOAI21X1_16 [vdd _38_ _39_] _22__7_ d_lut_OAI21X1
AINVX1_19 [rst_bF$buf3] _23_ d_lut_INVX1
ADFFSR_9 _22__0_ asr1.clk_bF$buf8 ~vdd ~_23_ asr1.cables_2__0_ NULL ddflop
ADFFSR_10 _22__1_ asr1.clk_bF$buf7 ~vdd ~_23_ asr1.cables_2__1_ NULL ddflop
ADFFSR_11 _22__2_ asr1.clk_bF$buf6 ~vdd ~_23_ asr1.cables_2__2_ NULL ddflop
ADFFSR_12 _22__3_ asr1.clk_bF$buf5 ~vdd ~_23_ asr1.cables_2__3_ NULL ddflop
ADFFSR_13 _22__4_ asr1.clk_bF$buf4 ~vdd ~_23_ asr1.cables_2__4_ NULL ddflop
ADFFSR_14 _22__5_ asr1.clk_bF$buf3 ~vdd ~_23_ asr1.cables_2__5_ NULL ddflop
ADFFSR_15 _22__6_ asr1.clk_bF$buf2 ~vdd ~_23_ asr1.cables_2__6_ NULL ddflop
ADFFSR_16 _22__7_ asr1.clk_bF$buf1 ~vdd ~_23_ asr1.cables_2__7_ NULL ddflop
AINVX1_20 [asr1.cables_3__0_] _42_ d_lut_INVX1
ANAND2X1_17 [asr1.cables_2__0_ vdd] _43_ d_lut_NAND2X1
AOAI21X1_17 [vdd _42_ _43_] _40__0_ d_lut_OAI21X1
AINVX1_21 [asr1.cables_3__1_] _44_ d_lut_INVX1
ANAND2X1_18 [vdd asr1.cables_2__1_] _45_ d_lut_NAND2X1
AOAI21X1_18 [vdd _44_ _45_] _40__1_ d_lut_OAI21X1
AINVX1_22 [asr1.cables_3__2_] _46_ d_lut_INVX1
ANAND2X1_19 [vdd asr1.cables_2__2_] _47_ d_lut_NAND2X1
AOAI21X1_19 [vdd _46_ _47_] _40__2_ d_lut_OAI21X1
AINVX1_23 [asr1.cables_3__3_] _48_ d_lut_INVX1
ANAND2X1_20 [vdd asr1.cables_2__3_] _49_ d_lut_NAND2X1
AOAI21X1_20 [vdd _48_ _49_] _40__3_ d_lut_OAI21X1
AINVX1_24 [asr1.cables_3__4_] _50_ d_lut_INVX1
ANAND2X1_21 [vdd asr1.cables_2__4_] _51_ d_lut_NAND2X1
AOAI21X1_21 [vdd _50_ _51_] _40__4_ d_lut_OAI21X1
AINVX1_25 [asr1.cables_3__5_] _52_ d_lut_INVX1
ANAND2X1_22 [vdd asr1.cables_2__5_] _53_ d_lut_NAND2X1
AOAI21X1_22 [vdd _52_ _53_] _40__5_ d_lut_OAI21X1
AINVX1_26 [asr1.cables_3__6_] _54_ d_lut_INVX1
ANAND2X1_23 [vdd asr1.cables_2__6_] _55_ d_lut_NAND2X1
AOAI21X1_23 [vdd _54_ _55_] _40__6_ d_lut_OAI21X1
AINVX1_27 [asr1.cables_3__7_] _56_ d_lut_INVX1
ANAND2X1_24 [vdd asr1.cables_2__7_] _57_ d_lut_NAND2X1
AOAI21X1_24 [vdd _56_ _57_] _40__7_ d_lut_OAI21X1
AINVX1_28 [rst_bF$buf2] _41_ d_lut_INVX1
ADFFSR_17 _40__0_ asr1.clk_bF$buf0 ~vdd ~_41_ asr1.cables_3__0_ NULL ddflop
ADFFSR_18 _40__1_ asr1.clk_bF$buf8 ~vdd ~_41_ asr1.cables_3__1_ NULL ddflop
ADFFSR_19 _40__2_ asr1.clk_bF$buf7 ~vdd ~_41_ asr1.cables_3__2_ NULL ddflop
ADFFSR_20 _40__3_ asr1.clk_bF$buf6 ~vdd ~_41_ asr1.cables_3__3_ NULL ddflop
ADFFSR_21 _40__4_ asr1.clk_bF$buf5 ~vdd ~_41_ asr1.cables_3__4_ NULL ddflop
ADFFSR_22 _40__5_ asr1.clk_bF$buf4 ~vdd ~_41_ asr1.cables_3__5_ NULL ddflop
ADFFSR_23 _40__6_ asr1.clk_bF$buf3 ~vdd ~_41_ asr1.cables_3__6_ NULL ddflop
ADFFSR_24 _40__7_ asr1.clk_bF$buf2 ~vdd ~_41_ asr1.cables_3__7_ NULL ddflop
AINVX1_29 [asr1.cables_4_] _60_ d_lut_INVX1
ANAND2X1_25 [asr1.cables_3__0_ vdd] _61_ d_lut_NAND2X1
AOAI21X1_25 [vdd _60_ _61_] _58__0_ d_lut_OAI21X1
AINVX1_30 [_76_] _62_ d_lut_INVX1
ANAND2X1_26 [vdd asr1.cables_3__1_] _63_ d_lut_NAND2X1
AOAI21X1_26 [vdd _62_ _63_] _58__1_ d_lut_OAI21X1
AINVX1_31 [_82_] _64_ d_lut_INVX1
ANAND2X1_27 [vdd asr1.cables_3__2_] _65_ d_lut_NAND2X1
AOAI21X1_27 [vdd _64_ _65_] _58__2_ d_lut_OAI21X1
AINVX1_32 [_77_] _66_ d_lut_INVX1
ANAND2X1_28 [vdd asr1.cables_3__3_] _67_ d_lut_NAND2X1
AOAI21X1_28 [vdd _66_ _67_] _58__3_ d_lut_OAI21X1
AINVX1_33 [_78_] _68_ d_lut_INVX1
ANAND2X1_29 [vdd asr1.cables_3__4_] _69_ d_lut_NAND2X1
AOAI21X1_29 [vdd _68_ _69_] _58__4_ d_lut_OAI21X1
AINVX1_34 [_79_] _70_ d_lut_INVX1
ANAND2X1_30 [vdd asr1.cables_3__5_] _71_ d_lut_NAND2X1
AOAI21X1_30 [vdd _70_ _71_] _58__5_ d_lut_OAI21X1
AINVX1_35 [_80_] _72_ d_lut_INVX1
ANAND2X1_31 [vdd asr1.cables_3__6_] _73_ d_lut_NAND2X1
AOAI21X1_31 [vdd _72_ _73_] _58__6_ d_lut_OAI21X1
AINVX1_36 [_81_] _74_ d_lut_INVX1
ANAND2X1_32 [vdd asr1.cables_3__7_] _75_ d_lut_NAND2X1
AOAI21X1_32 [vdd _74_ _75_] _58__7_ d_lut_OAI21X1
AINVX1_37 [rst_bF$buf1] _59_ d_lut_INVX1
ADFFSR_25 _58__0_ asr1.clk_bF$buf1 ~vdd ~_59_ asr1.cables_4_ NULL ddflop
ADFFSR_26 _58__1_ asr1.clk_bF$buf0 ~vdd ~_59_ _76_ NULL ddflop
ADFFSR_27 _58__2_ asr1.clk_bF$buf8 ~vdd ~_59_ _82_ NULL ddflop
ADFFSR_28 _58__3_ asr1.clk_bF$buf7 ~vdd ~_59_ _77_ NULL ddflop
ADFFSR_29 _58__4_ asr1.clk_bF$buf6 ~vdd ~_59_ _78_ NULL ddflop
ADFFSR_30 _58__5_ asr1.clk_bF$buf5 ~vdd ~_59_ _79_ NULL ddflop
ADFFSR_31 _58__6_ asr1.clk_bF$buf4 ~vdd ~_59_ _80_ NULL ddflop
ADFFSR_32 _58__7_ asr1.clk_bF$buf3 ~vdd ~_59_ _81_ NULL ddflop
AINVX1_38 [asr1.cables_5__0_] _85_ d_lut_INVX1
ANAND2X1_33 [asr1.cables_4_ vdd] _86_ d_lut_NAND2X1
AOAI21X1_33 [vdd _85_ _86_] _83__0_ d_lut_OAI21X1
AINVX1_39 [asr1.cables_5__1_] _87_ d_lut_INVX1
ANAND2X1_34 [vdd _76_] _88_ d_lut_NAND2X1
AOAI21X1_34 [vdd _87_ _88_] _83__1_ d_lut_OAI21X1
AINVX1_40 [asr1.cables_5__2_] _89_ d_lut_INVX1
ANAND2X1_35 [vdd _82_] _90_ d_lut_NAND2X1
AOAI21X1_35 [vdd _89_ _90_] _83__2_ d_lut_OAI21X1
AINVX1_41 [asr1.cables_5__3_] _91_ d_lut_INVX1
ANAND2X1_36 [vdd _77_] _92_ d_lut_NAND2X1
AOAI21X1_36 [vdd _91_ _92_] _83__3_ d_lut_OAI21X1
AINVX1_42 [asr1.cables_5__4_] _93_ d_lut_INVX1
ANAND2X1_37 [vdd _78_] _94_ d_lut_NAND2X1
AOAI21X1_37 [vdd _93_ _94_] _83__4_ d_lut_OAI21X1
AINVX1_43 [asr1.cables_5__5_] _95_ d_lut_INVX1
ANAND2X1_38 [vdd _79_] _96_ d_lut_NAND2X1
AOAI21X1_38 [vdd _95_ _96_] _83__5_ d_lut_OAI21X1
AINVX1_44 [asr1.cables_5__6_] _97_ d_lut_INVX1
ANAND2X1_39 [vdd _80_] _98_ d_lut_NAND2X1
AOAI21X1_39 [vdd _97_ _98_] _83__6_ d_lut_OAI21X1
AINVX1_45 [asr1.cables_5__7_] _99_ d_lut_INVX1
ANAND2X1_40 [vdd _81_] _100_ d_lut_NAND2X1
AOAI21X1_40 [vdd _99_ _100_] _83__7_ d_lut_OAI21X1
AINVX1_46 [rst_bF$buf0] _84_ d_lut_INVX1
ADFFSR_33 _83__0_ asr1.clk_bF$buf2 ~vdd ~_84_ asr1.cables_5__0_ NULL ddflop
ADFFSR_34 _83__1_ asr1.clk_bF$buf1 ~vdd ~_84_ asr1.cables_5__1_ NULL ddflop
ADFFSR_35 _83__2_ asr1.clk_bF$buf0 ~vdd ~_84_ asr1.cables_5__2_ NULL ddflop
ADFFSR_36 _83__3_ asr1.clk_bF$buf8 ~vdd ~_84_ asr1.cables_5__3_ NULL ddflop
ADFFSR_37 _83__4_ asr1.clk_bF$buf7 ~vdd ~_84_ asr1.cables_5__4_ NULL ddflop
ADFFSR_38 _83__5_ asr1.clk_bF$buf6 ~vdd ~_84_ asr1.cables_5__5_ NULL ddflop
ADFFSR_39 _83__6_ asr1.clk_bF$buf5 ~vdd ~_84_ asr1.cables_5__6_ NULL ddflop
ADFFSR_40 _83__7_ asr1.clk_bF$buf4 ~vdd ~_84_ asr1.cables_5__7_ NULL ddflop
AINVX1_47 [asr1.cables_6__0_] _103_ d_lut_INVX1
ANAND2X1_41 [asr1.cables_5__0_ vdd] _104_ d_lut_NAND2X1
AOAI21X1_41 [vdd _103_ _104_] _101__0_ d_lut_OAI21X1
AINVX1_48 [asr1.cables_6__1_] _105_ d_lut_INVX1
ANAND2X1_42 [vdd asr1.cables_5__1_] _106_ d_lut_NAND2X1
AOAI21X1_42 [vdd _105_ _106_] _101__1_ d_lut_OAI21X1
AINVX1_49 [asr1.cables_6__2_] _107_ d_lut_INVX1
ANAND2X1_43 [vdd asr1.cables_5__2_] _108_ d_lut_NAND2X1
AOAI21X1_43 [vdd _107_ _108_] _101__2_ d_lut_OAI21X1
AINVX1_50 [asr1.cables_6__3_] _109_ d_lut_INVX1
ANAND2X1_44 [vdd asr1.cables_5__3_] _110_ d_lut_NAND2X1
AOAI21X1_44 [vdd _109_ _110_] _101__3_ d_lut_OAI21X1
AINVX1_51 [asr1.cables_6__4_] _111_ d_lut_INVX1
ANAND2X1_45 [vdd asr1.cables_5__4_] _112_ d_lut_NAND2X1
AOAI21X1_45 [vdd _111_ _112_] _101__4_ d_lut_OAI21X1
AINVX1_52 [asr1.cables_6__5_] _113_ d_lut_INVX1
ANAND2X1_46 [vdd asr1.cables_5__5_] _114_ d_lut_NAND2X1
AOAI21X1_46 [vdd _113_ _114_] _101__5_ d_lut_OAI21X1
AINVX1_53 [asr1.cables_6__6_] _115_ d_lut_INVX1
ANAND2X1_47 [vdd asr1.cables_5__6_] _116_ d_lut_NAND2X1
AOAI21X1_47 [vdd _115_ _116_] _101__6_ d_lut_OAI21X1
AINVX1_54 [asr1.cables_6__7_] _117_ d_lut_INVX1
ANAND2X1_48 [vdd asr1.cables_5__7_] _118_ d_lut_NAND2X1
AOAI21X1_48 [vdd _117_ _118_] _101__7_ d_lut_OAI21X1
AINVX1_55 [rst_bF$buf5] _102_ d_lut_INVX1
ADFFSR_41 _101__0_ asr1.clk_bF$buf3 ~vdd ~_102_ asr1.cables_6__0_ NULL ddflop
ADFFSR_42 _101__1_ asr1.clk_bF$buf2 ~vdd ~_102_ asr1.cables_6__1_ NULL ddflop
ADFFSR_43 _101__2_ asr1.clk_bF$buf1 ~vdd ~_102_ asr1.cables_6__2_ NULL ddflop
ADFFSR_44 _101__3_ asr1.clk_bF$buf0 ~vdd ~_102_ asr1.cables_6__3_ NULL ddflop
ADFFSR_45 _101__4_ asr1.clk_bF$buf8 ~vdd ~_102_ asr1.cables_6__4_ NULL ddflop
ADFFSR_46 _101__5_ asr1.clk_bF$buf7 ~vdd ~_102_ asr1.cables_6__5_ NULL ddflop
ADFFSR_47 _101__6_ asr1.clk_bF$buf6 ~vdd ~_102_ asr1.cables_6__6_ NULL ddflop
ADFFSR_48 _101__7_ asr1.clk_bF$buf5 ~vdd ~_102_ asr1.cables_6__7_ NULL ddflop
AINVX1_56 [asr1.cables_7__0_] _121_ d_lut_INVX1
ANAND2X1_49 [asr1.cables_6__0_ vdd] _122_ d_lut_NAND2X1
AOAI21X1_49 [vdd _121_ _122_] _119__0_ d_lut_OAI21X1
AINVX1_57 [asr1.cables_7__1_] _123_ d_lut_INVX1
ANAND2X1_50 [vdd asr1.cables_6__1_] _124_ d_lut_NAND2X1
AOAI21X1_50 [vdd _123_ _124_] _119__1_ d_lut_OAI21X1
AINVX1_58 [asr1.cables_7__2_] _125_ d_lut_INVX1
ANAND2X1_51 [vdd asr1.cables_6__2_] _126_ d_lut_NAND2X1
AOAI21X1_51 [vdd _125_ _126_] _119__2_ d_lut_OAI21X1
AINVX1_59 [asr1.cables_7__3_] _127_ d_lut_INVX1
ANAND2X1_52 [vdd asr1.cables_6__3_] _128_ d_lut_NAND2X1
AOAI21X1_52 [vdd _127_ _128_] _119__3_ d_lut_OAI21X1
AINVX1_60 [asr1.cables_7__4_] _129_ d_lut_INVX1
ANAND2X1_53 [vdd asr1.cables_6__4_] _130_ d_lut_NAND2X1
AOAI21X1_53 [vdd _129_ _130_] _119__4_ d_lut_OAI21X1
AINVX1_61 [asr1.cables_7__5_] _131_ d_lut_INVX1
ANAND2X1_54 [vdd asr1.cables_6__5_] _132_ d_lut_NAND2X1
AOAI21X1_54 [vdd _131_ _132_] _119__5_ d_lut_OAI21X1
AINVX1_62 [asr1.cables_7__6_] _133_ d_lut_INVX1
ANAND2X1_55 [vdd asr1.cables_6__6_] _134_ d_lut_NAND2X1
AOAI21X1_55 [vdd _133_ _134_] _119__6_ d_lut_OAI21X1
AINVX1_63 [asr1.cables_7__7_] _135_ d_lut_INVX1
ANAND2X1_56 [vdd asr1.cables_6__7_] _136_ d_lut_NAND2X1
AOAI21X1_56 [vdd _135_ _136_] _119__7_ d_lut_OAI21X1
AINVX1_64 [rst_bF$buf4] _120_ d_lut_INVX1
ADFFSR_49 _119__0_ asr1.clk_bF$buf4 ~vdd ~_120_ asr1.cables_7__0_ NULL ddflop
ADFFSR_50 _119__1_ asr1.clk_bF$buf3 ~vdd ~_120_ asr1.cables_7__1_ NULL ddflop
ADFFSR_51 _119__2_ asr1.clk_bF$buf2 ~vdd ~_120_ asr1.cables_7__2_ NULL ddflop
ADFFSR_52 _119__3_ asr1.clk_bF$buf1 ~vdd ~_120_ asr1.cables_7__3_ NULL ddflop
ADFFSR_53 _119__4_ asr1.clk_bF$buf0 ~vdd ~_120_ asr1.cables_7__4_ NULL ddflop
ADFFSR_54 _119__5_ asr1.clk_bF$buf8 ~vdd ~_120_ asr1.cables_7__5_ NULL ddflop
ADFFSR_55 _119__6_ asr1.clk_bF$buf7 ~vdd ~_120_ asr1.cables_7__6_ NULL ddflop
ADFFSR_56 _119__7_ asr1.clk_bF$buf6 ~vdd ~_120_ asr1.cables_7__7_ NULL ddflop
AINVX1_65 [asr1.cables_8__0_] _139_ d_lut_INVX1
ANAND2X1_57 [asr1.cables_7__0_ vdd] _140_ d_lut_NAND2X1
AOAI21X1_57 [vdd _139_ _140_] _137__0_ d_lut_OAI21X1
AINVX1_66 [asr1.cables_8__1_] _141_ d_lut_INVX1
ANAND2X1_58 [vdd asr1.cables_7__1_] _142_ d_lut_NAND2X1
AOAI21X1_58 [vdd _141_ _142_] _137__1_ d_lut_OAI21X1
AINVX1_67 [asr1.cables_8__2_] _143_ d_lut_INVX1
ANAND2X1_59 [vdd asr1.cables_7__2_] _144_ d_lut_NAND2X1
AOAI21X1_59 [vdd _143_ _144_] _137__2_ d_lut_OAI21X1
AINVX1_68 [asr1.cables_8__3_] _145_ d_lut_INVX1
ANAND2X1_60 [vdd asr1.cables_7__3_] _146_ d_lut_NAND2X1
AOAI21X1_60 [vdd _145_ _146_] _137__3_ d_lut_OAI21X1
AINVX1_69 [asr1.cables_8__4_] _147_ d_lut_INVX1
ANAND2X1_61 [vdd asr1.cables_7__4_] _148_ d_lut_NAND2X1
AOAI21X1_61 [vdd _147_ _148_] _137__4_ d_lut_OAI21X1
AINVX1_70 [asr1.cables_8__5_] _149_ d_lut_INVX1
ANAND2X1_62 [vdd asr1.cables_7__5_] _150_ d_lut_NAND2X1
AOAI21X1_62 [vdd _149_ _150_] _137__5_ d_lut_OAI21X1
AINVX1_71 [asr1.cables_8__6_] _151_ d_lut_INVX1
ANAND2X1_63 [vdd asr1.cables_7__6_] _152_ d_lut_NAND2X1
AOAI21X1_63 [vdd _151_ _152_] _137__6_ d_lut_OAI21X1
AINVX1_72 [asr1.cables_8__7_] _153_ d_lut_INVX1
ANAND2X1_64 [vdd asr1.cables_7__7_] _154_ d_lut_NAND2X1
AOAI21X1_64 [vdd _153_ _154_] _137__7_ d_lut_OAI21X1
AINVX1_73 [rst_bF$buf3] _138_ d_lut_INVX1
ADFFSR_57 _137__0_ asr1.clk_bF$buf5 ~vdd ~_138_ asr1.cables_8__0_ NULL ddflop
ADFFSR_58 _137__1_ asr1.clk_bF$buf4 ~vdd ~_138_ asr1.cables_8__1_ NULL ddflop
ADFFSR_59 _137__2_ asr1.clk_bF$buf3 ~vdd ~_138_ asr1.cables_8__2_ NULL ddflop
ADFFSR_60 _137__3_ asr1.clk_bF$buf2 ~vdd ~_138_ asr1.cables_8__3_ NULL ddflop
ADFFSR_61 _137__4_ asr1.clk_bF$buf1 ~vdd ~_138_ asr1.cables_8__4_ NULL ddflop
ADFFSR_62 _137__5_ asr1.clk_bF$buf0 ~vdd ~_138_ asr1.cables_8__5_ NULL ddflop
ADFFSR_63 _137__6_ asr1.clk_bF$buf8 ~vdd ~_138_ asr1.cables_8__6_ NULL ddflop
ADFFSR_64 _137__7_ asr1.clk_bF$buf7 ~vdd ~_138_ asr1.cables_8__7_ NULL ddflop
AINVX1_74 [asr2.cables_1__0_] _157_ d_lut_INVX1
ANAND2X1_65 [asr1.q_0_ asr2.en_bF$buf10] _158_ d_lut_NAND2X1
AOAI21X1_65 [asr2.en_bF$buf9 _157_ _158_] _155__0_ d_lut_OAI21X1
AINVX1_75 [asr2.cables_1__1_] _159_ d_lut_INVX1
ANAND2X1_66 [asr2.en_bF$buf8 asr1.q_1_] _160_ d_lut_NAND2X1
AOAI21X1_66 [asr2.en_bF$buf7 _159_ _160_] _155__1_ d_lut_OAI21X1
AINVX1_76 [asr2.cables_1__2_] _161_ d_lut_INVX1
ANAND2X1_67 [asr2.en_bF$buf6 asr1.q_2_] _162_ d_lut_NAND2X1
AOAI21X1_67 [asr2.en_bF$buf5 _161_ _162_] _155__2_ d_lut_OAI21X1
AINVX1_77 [asr2.cables_1__3_] _163_ d_lut_INVX1
ANAND2X1_68 [asr2.en_bF$buf4 asr1.q_3_] _164_ d_lut_NAND2X1
AOAI21X1_68 [asr2.en_bF$buf3 _163_ _164_] _155__3_ d_lut_OAI21X1
AINVX1_78 [asr2.cables_1__4_] _165_ d_lut_INVX1
ANAND2X1_69 [asr2.en_bF$buf2 asr1.q_4_] _166_ d_lut_NAND2X1
AOAI21X1_69 [asr2.en_bF$buf1 _165_ _166_] _155__4_ d_lut_OAI21X1
AINVX1_79 [asr2.cables_1__5_] _167_ d_lut_INVX1
ANAND2X1_70 [asr2.en_bF$buf0 asr1.q_5_] _168_ d_lut_NAND2X1
AOAI21X1_70 [asr2.en_bF$buf10 _167_ _168_] _155__5_ d_lut_OAI21X1
AINVX1_80 [asr2.cables_1__6_] _169_ d_lut_INVX1
ANAND2X1_71 [asr2.en_bF$buf9 asr1.q_6_] _170_ d_lut_NAND2X1
AOAI21X1_71 [asr2.en_bF$buf8 _169_ _170_] _155__6_ d_lut_OAI21X1
AINVX1_81 [asr2.cables_1__7_] _171_ d_lut_INVX1
ANAND2X1_72 [asr2.en_bF$buf7 asr1.q_7_] _172_ d_lut_NAND2X1
AOAI21X1_72 [asr2.en_bF$buf6 _171_ _172_] _155__7_ d_lut_OAI21X1
AINVX1_82 [rst_bF$buf2] _156_ d_lut_INVX1
ADFFSR_65 _155__0_ asr2.clk_bF$buf7 ~vdd ~_156_ asr2.cables_1__0_ NULL ddflop
ADFFSR_66 _155__1_ asr2.clk_bF$buf6 ~vdd ~_156_ asr2.cables_1__1_ NULL ddflop
ADFFSR_67 _155__2_ asr2.clk_bF$buf5 ~vdd ~_156_ asr2.cables_1__2_ NULL ddflop
ADFFSR_68 _155__3_ asr2.clk_bF$buf4 ~vdd ~_156_ asr2.cables_1__3_ NULL ddflop
ADFFSR_69 _155__4_ asr2.clk_bF$buf3 ~vdd ~_156_ asr2.cables_1__4_ NULL ddflop
ADFFSR_70 _155__5_ asr2.clk_bF$buf2 ~vdd ~_156_ asr2.cables_1__5_ NULL ddflop
ADFFSR_71 _155__6_ asr2.clk_bF$buf1 ~vdd ~_156_ asr2.cables_1__6_ NULL ddflop
ADFFSR_72 _155__7_ asr2.clk_bF$buf0 ~vdd ~_156_ asr2.cables_1__7_ NULL ddflop
AINVX1_83 [asr2.cables_2__0_] _175_ d_lut_INVX1
ANAND2X1_73 [asr2.cables_1__0_ asr2.en_bF$buf5] _176_ d_lut_NAND2X1
AOAI21X1_73 [asr2.en_bF$buf4 _175_ _176_] _173__0_ d_lut_OAI21X1
AINVX1_84 [asr2.cables_2__1_] _177_ d_lut_INVX1
ANAND2X1_74 [asr2.en_bF$buf3 asr2.cables_1__1_] _178_ d_lut_NAND2X1
AOAI21X1_74 [asr2.en_bF$buf2 _177_ _178_] _173__1_ d_lut_OAI21X1
AINVX1_85 [asr2.cables_2__2_] _179_ d_lut_INVX1
ANAND2X1_75 [asr2.en_bF$buf1 asr2.cables_1__2_] _180_ d_lut_NAND2X1
AOAI21X1_75 [asr2.en_bF$buf0 _179_ _180_] _173__2_ d_lut_OAI21X1
AINVX1_86 [asr2.cables_2__3_] _181_ d_lut_INVX1
ANAND2X1_76 [asr2.en_bF$buf10 asr2.cables_1__3_] _182_ d_lut_NAND2X1
AOAI21X1_76 [asr2.en_bF$buf9 _181_ _182_] _173__3_ d_lut_OAI21X1
AINVX1_87 [asr2.cables_2__4_] _183_ d_lut_INVX1
ANAND2X1_77 [asr2.en_bF$buf8 asr2.cables_1__4_] _184_ d_lut_NAND2X1
AOAI21X1_77 [asr2.en_bF$buf7 _183_ _184_] _173__4_ d_lut_OAI21X1
AINVX1_88 [asr2.cables_2__5_] _185_ d_lut_INVX1
ANAND2X1_78 [asr2.en_bF$buf6 asr2.cables_1__5_] _186_ d_lut_NAND2X1
AOAI21X1_78 [asr2.en_bF$buf5 _185_ _186_] _173__5_ d_lut_OAI21X1
AINVX1_89 [asr2.cables_2__6_] _187_ d_lut_INVX1
ANAND2X1_79 [asr2.en_bF$buf4 asr2.cables_1__6_] _188_ d_lut_NAND2X1
AOAI21X1_79 [asr2.en_bF$buf3 _187_ _188_] _173__6_ d_lut_OAI21X1
AINVX1_90 [asr2.cables_2__7_] _189_ d_lut_INVX1
ANAND2X1_80 [asr2.en_bF$buf2 asr2.cables_1__7_] _190_ d_lut_NAND2X1
AOAI21X1_80 [asr2.en_bF$buf1 _189_ _190_] _173__7_ d_lut_OAI21X1
AINVX1_91 [rst_bF$buf1] _174_ d_lut_INVX1
ADFFSR_73 _173__0_ asr2.clk_bF$buf7 ~vdd ~_174_ asr2.cables_2__0_ NULL ddflop
ADFFSR_74 _173__1_ asr2.clk_bF$buf6 ~vdd ~_174_ asr2.cables_2__1_ NULL ddflop
ADFFSR_75 _173__2_ asr2.clk_bF$buf5 ~vdd ~_174_ asr2.cables_2__2_ NULL ddflop
ADFFSR_76 _173__3_ asr2.clk_bF$buf4 ~vdd ~_174_ asr2.cables_2__3_ NULL ddflop
ADFFSR_77 _173__4_ asr2.clk_bF$buf3 ~vdd ~_174_ asr2.cables_2__4_ NULL ddflop
ADFFSR_78 _173__5_ asr2.clk_bF$buf2 ~vdd ~_174_ asr2.cables_2__5_ NULL ddflop
ADFFSR_79 _173__6_ asr2.clk_bF$buf1 ~vdd ~_174_ asr2.cables_2__6_ NULL ddflop
ADFFSR_80 _173__7_ asr2.clk_bF$buf0 ~vdd ~_174_ asr2.cables_2__7_ NULL ddflop
AINVX1_92 [asr2.cables_3__0_] _193_ d_lut_INVX1
ANAND2X1_81 [asr2.cables_2__0_ asr2.en_bF$buf0] _194_ d_lut_NAND2X1
AOAI21X1_81 [asr2.en_bF$buf10 _193_ _194_] _191__0_ d_lut_OAI21X1
AINVX1_93 [asr2.cables_3__1_] _195_ d_lut_INVX1
ANAND2X1_82 [asr2.en_bF$buf9 asr2.cables_2__1_] _196_ d_lut_NAND2X1
AOAI21X1_82 [asr2.en_bF$buf8 _195_ _196_] _191__1_ d_lut_OAI21X1
AINVX1_94 [asr2.cables_3__2_] _197_ d_lut_INVX1
ANAND2X1_83 [asr2.en_bF$buf7 asr2.cables_2__2_] _198_ d_lut_NAND2X1
AOAI21X1_83 [asr2.en_bF$buf6 _197_ _198_] _191__2_ d_lut_OAI21X1
AINVX1_95 [asr2.cables_3__3_] _199_ d_lut_INVX1
ANAND2X1_84 [asr2.en_bF$buf5 asr2.cables_2__3_] _200_ d_lut_NAND2X1
AOAI21X1_84 [asr2.en_bF$buf4 _199_ _200_] _191__3_ d_lut_OAI21X1
AINVX1_96 [asr2.cables_3__4_] _201_ d_lut_INVX1
ANAND2X1_85 [asr2.en_bF$buf3 asr2.cables_2__4_] _202_ d_lut_NAND2X1
AOAI21X1_85 [asr2.en_bF$buf2 _201_ _202_] _191__4_ d_lut_OAI21X1
AINVX1_97 [asr2.cables_3__5_] _203_ d_lut_INVX1
ANAND2X1_86 [asr2.en_bF$buf1 asr2.cables_2__5_] _204_ d_lut_NAND2X1
AOAI21X1_86 [asr2.en_bF$buf0 _203_ _204_] _191__5_ d_lut_OAI21X1
AINVX1_98 [asr2.cables_3__6_] _205_ d_lut_INVX1
ANAND2X1_87 [asr2.en_bF$buf10 asr2.cables_2__6_] _206_ d_lut_NAND2X1
AOAI21X1_87 [asr2.en_bF$buf9 _205_ _206_] _191__6_ d_lut_OAI21X1
AINVX1_99 [asr2.cables_3__7_] _207_ d_lut_INVX1
ANAND2X1_88 [asr2.en_bF$buf8 asr2.cables_2__7_] _208_ d_lut_NAND2X1
AOAI21X1_88 [asr2.en_bF$buf7 _207_ _208_] _191__7_ d_lut_OAI21X1
AINVX1_100 [rst_bF$buf0] _192_ d_lut_INVX1
ADFFSR_81 _191__0_ asr2.clk_bF$buf7 ~vdd ~_192_ asr2.cables_3__0_ NULL ddflop
ADFFSR_82 _191__1_ asr2.clk_bF$buf6 ~vdd ~_192_ asr2.cables_3__1_ NULL ddflop
ADFFSR_83 _191__2_ asr2.clk_bF$buf5 ~vdd ~_192_ asr2.cables_3__2_ NULL ddflop
ADFFSR_84 _191__3_ asr2.clk_bF$buf4 ~vdd ~_192_ asr2.cables_3__3_ NULL ddflop
ADFFSR_85 _191__4_ asr2.clk_bF$buf3 ~vdd ~_192_ asr2.cables_3__4_ NULL ddflop
ADFFSR_86 _191__5_ asr2.clk_bF$buf2 ~vdd ~_192_ asr2.cables_3__5_ NULL ddflop
ADFFSR_87 _191__6_ asr2.clk_bF$buf1 ~vdd ~_192_ asr2.cables_3__6_ NULL ddflop
ADFFSR_88 _191__7_ asr2.clk_bF$buf0 ~vdd ~_192_ asr2.cables_3__7_ NULL ddflop
AINVX1_101 [asr2.cables_4_] _211_ d_lut_INVX1
ANAND2X1_89 [asr2.cables_3__0_ asr2.en_bF$buf6] _212_ d_lut_NAND2X1
AOAI21X1_89 [asr2.en_bF$buf5 _211_ _212_] _209__0_ d_lut_OAI21X1
AINVX1_102 [_227_] _213_ d_lut_INVX1
ANAND2X1_90 [asr2.en_bF$buf4 asr2.cables_3__1_] _214_ d_lut_NAND2X1
AOAI21X1_90 [asr2.en_bF$buf3 _213_ _214_] _209__1_ d_lut_OAI21X1
AINVX1_103 [_233_] _215_ d_lut_INVX1
ANAND2X1_91 [asr2.en_bF$buf2 asr2.cables_3__2_] _216_ d_lut_NAND2X1
AOAI21X1_91 [asr2.en_bF$buf1 _215_ _216_] _209__2_ d_lut_OAI21X1
AINVX1_104 [_228_] _217_ d_lut_INVX1
ANAND2X1_92 [asr2.en_bF$buf0 asr2.cables_3__3_] _218_ d_lut_NAND2X1
AOAI21X1_92 [asr2.en_bF$buf10 _217_ _218_] _209__3_ d_lut_OAI21X1
AINVX1_105 [_229_] _219_ d_lut_INVX1
ANAND2X1_93 [asr2.en_bF$buf9 asr2.cables_3__4_] _220_ d_lut_NAND2X1
AOAI21X1_93 [asr2.en_bF$buf8 _219_ _220_] _209__4_ d_lut_OAI21X1
AINVX1_106 [_230_] _221_ d_lut_INVX1
ANAND2X1_94 [asr2.en_bF$buf7 asr2.cables_3__5_] _222_ d_lut_NAND2X1
AOAI21X1_94 [asr2.en_bF$buf6 _221_ _222_] _209__5_ d_lut_OAI21X1
AINVX1_107 [_231_] _223_ d_lut_INVX1
ANAND2X1_95 [asr2.en_bF$buf5 asr2.cables_3__6_] _224_ d_lut_NAND2X1
AOAI21X1_95 [asr2.en_bF$buf4 _223_ _224_] _209__6_ d_lut_OAI21X1
AINVX1_108 [_232_] _225_ d_lut_INVX1
ANAND2X1_96 [asr2.en_bF$buf3 asr2.cables_3__7_] _226_ d_lut_NAND2X1
AOAI21X1_96 [asr2.en_bF$buf2 _225_ _226_] _209__7_ d_lut_OAI21X1
AINVX1_109 [rst_bF$buf5] _210_ d_lut_INVX1
ADFFSR_89 _209__0_ asr2.clk_bF$buf7 ~vdd ~_210_ asr2.cables_4_ NULL ddflop
ADFFSR_90 _209__1_ asr2.clk_bF$buf6 ~vdd ~_210_ _227_ NULL ddflop
ADFFSR_91 _209__2_ asr2.clk_bF$buf5 ~vdd ~_210_ _233_ NULL ddflop
ADFFSR_92 _209__3_ asr2.clk_bF$buf4 ~vdd ~_210_ _228_ NULL ddflop
ADFFSR_93 _209__4_ asr2.clk_bF$buf3 ~vdd ~_210_ _229_ NULL ddflop
ADFFSR_94 _209__5_ asr2.clk_bF$buf2 ~vdd ~_210_ _230_ NULL ddflop
ADFFSR_95 _209__6_ asr2.clk_bF$buf1 ~vdd ~_210_ _231_ NULL ddflop
ADFFSR_96 _209__7_ asr2.clk_bF$buf0 ~vdd ~_210_ _232_ NULL ddflop
AINVX1_110 [asr2.cables_5__0_] _236_ d_lut_INVX1
ANAND2X1_97 [asr2.cables_4_ asr2.en_bF$buf1] _237_ d_lut_NAND2X1
AOAI21X1_97 [asr2.en_bF$buf0 _236_ _237_] _234__0_ d_lut_OAI21X1
AINVX1_111 [asr2.cables_5__1_] _238_ d_lut_INVX1
ANAND2X1_98 [asr2.en_bF$buf10 _227_] _239_ d_lut_NAND2X1
AOAI21X1_98 [asr2.en_bF$buf9 _238_ _239_] _234__1_ d_lut_OAI21X1
AINVX1_112 [asr2.cables_5__2_] _240_ d_lut_INVX1
ANAND2X1_99 [asr2.en_bF$buf8 _233_] _241_ d_lut_NAND2X1
AOAI21X1_99 [asr2.en_bF$buf7 _240_ _241_] _234__2_ d_lut_OAI21X1
AINVX1_113 [asr2.cables_5__3_] _242_ d_lut_INVX1
ANAND2X1_100 [asr2.en_bF$buf6 _228_] _243_ d_lut_NAND2X1
AOAI21X1_100 [asr2.en_bF$buf5 _242_ _243_] _234__3_ d_lut_OAI21X1
AINVX1_114 [asr2.cables_5__4_] _244_ d_lut_INVX1
ANAND2X1_101 [asr2.en_bF$buf4 _229_] _245_ d_lut_NAND2X1
AOAI21X1_101 [asr2.en_bF$buf3 _244_ _245_] _234__4_ d_lut_OAI21X1
AINVX1_115 [asr2.cables_5__5_] _246_ d_lut_INVX1
ANAND2X1_102 [asr2.en_bF$buf2 _230_] _247_ d_lut_NAND2X1
AOAI21X1_102 [asr2.en_bF$buf1 _246_ _247_] _234__5_ d_lut_OAI21X1
AINVX1_116 [asr2.cables_5__6_] _248_ d_lut_INVX1
ANAND2X1_103 [asr2.en_bF$buf0 _231_] _249_ d_lut_NAND2X1
AOAI21X1_103 [asr2.en_bF$buf10 _248_ _249_] _234__6_ d_lut_OAI21X1
AINVX1_117 [asr2.cables_5__7_] _250_ d_lut_INVX1
ANAND2X1_104 [asr2.en_bF$buf9 _232_] _251_ d_lut_NAND2X1
AOAI21X1_104 [asr2.en_bF$buf8 _250_ _251_] _234__7_ d_lut_OAI21X1
AINVX1_118 [rst_bF$buf4] _235_ d_lut_INVX1
ADFFSR_97 _234__0_ asr2.clk_bF$buf7 ~vdd ~_235_ asr2.cables_5__0_ NULL ddflop
ADFFSR_98 _234__1_ asr2.clk_bF$buf6 ~vdd ~_235_ asr2.cables_5__1_ NULL ddflop
ADFFSR_99 _234__2_ asr2.clk_bF$buf5 ~vdd ~_235_ asr2.cables_5__2_ NULL ddflop
ADFFSR_100 _234__3_ asr2.clk_bF$buf4 ~vdd ~_235_ asr2.cables_5__3_ NULL ddflop
ADFFSR_101 _234__4_ asr2.clk_bF$buf3 ~vdd ~_235_ asr2.cables_5__4_ NULL ddflop
ADFFSR_102 _234__5_ asr2.clk_bF$buf2 ~vdd ~_235_ asr2.cables_5__5_ NULL ddflop
ADFFSR_103 _234__6_ asr2.clk_bF$buf1 ~vdd ~_235_ asr2.cables_5__6_ NULL ddflop
ADFFSR_104 _234__7_ asr2.clk_bF$buf0 ~vdd ~_235_ asr2.cables_5__7_ NULL ddflop
AINVX1_119 [asr2.cables_6__0_] _254_ d_lut_INVX1
ANAND2X1_105 [asr2.cables_5__0_ asr2.en_bF$buf7] _255_ d_lut_NAND2X1
AOAI21X1_105 [asr2.en_bF$buf6 _254_ _255_] _252__0_ d_lut_OAI21X1
AINVX1_120 [asr2.cables_6__1_] _256_ d_lut_INVX1
ANAND2X1_106 [asr2.en_bF$buf5 asr2.cables_5__1_] _257_ d_lut_NAND2X1
AOAI21X1_106 [asr2.en_bF$buf4 _256_ _257_] _252__1_ d_lut_OAI21X1
AINVX1_121 [asr2.cables_6__2_] _258_ d_lut_INVX1
ANAND2X1_107 [asr2.en_bF$buf3 asr2.cables_5__2_] _259_ d_lut_NAND2X1
AOAI21X1_107 [asr2.en_bF$buf2 _258_ _259_] _252__2_ d_lut_OAI21X1
AINVX1_122 [asr2.cables_6__3_] _260_ d_lut_INVX1
ANAND2X1_108 [asr2.en_bF$buf1 asr2.cables_5__3_] _261_ d_lut_NAND2X1
AOAI21X1_108 [asr2.en_bF$buf0 _260_ _261_] _252__3_ d_lut_OAI21X1
AINVX1_123 [asr2.cables_6__4_] _262_ d_lut_INVX1
ANAND2X1_109 [asr2.en_bF$buf10 asr2.cables_5__4_] _263_ d_lut_NAND2X1
AOAI21X1_109 [asr2.en_bF$buf9 _262_ _263_] _252__4_ d_lut_OAI21X1
AINVX1_124 [asr2.cables_6__5_] _264_ d_lut_INVX1
ANAND2X1_110 [asr2.en_bF$buf8 asr2.cables_5__5_] _265_ d_lut_NAND2X1
AOAI21X1_110 [asr2.en_bF$buf7 _264_ _265_] _252__5_ d_lut_OAI21X1
AINVX1_125 [asr2.cables_6__6_] _266_ d_lut_INVX1
ANAND2X1_111 [asr2.en_bF$buf6 asr2.cables_5__6_] _267_ d_lut_NAND2X1
AOAI21X1_111 [asr2.en_bF$buf5 _266_ _267_] _252__6_ d_lut_OAI21X1
AINVX1_126 [asr2.cables_6__7_] _268_ d_lut_INVX1
ANAND2X1_112 [asr2.en_bF$buf4 asr2.cables_5__7_] _269_ d_lut_NAND2X1
AOAI21X1_112 [asr2.en_bF$buf3 _268_ _269_] _252__7_ d_lut_OAI21X1
AINVX1_127 [rst_bF$buf3] _253_ d_lut_INVX1
ADFFSR_105 _252__0_ asr2.clk_bF$buf7 ~vdd ~_253_ asr2.cables_6__0_ NULL ddflop