*SPICE netlist created from BLIF module FIR by blif2BSpice
.include /usr/local/share/qflow/tech/osu050/osu050_stdcells.sp
.subckt FIR vdd gnd clk rst din[0] din[1] din[2] din[3] din[4] din[5] din[6] din[7] dout[0] dout[1] dout[2] dout[3] dout[4] dout[5] dout[6] dout[7] 
XCLKBUF1_1 asr2.clk vdd gnd asr2.clk_bF$buf7 CLKBUF1
XCLKBUF1_2 asr2.clk vdd gnd asr2.clk_bF$buf6 CLKBUF1
XCLKBUF1_3 asr2.clk vdd gnd asr2.clk_bF$buf5 CLKBUF1
XCLKBUF1_4 asr2.clk vdd gnd asr2.clk_bF$buf4 CLKBUF1
XCLKBUF1_5 asr2.clk vdd gnd asr2.clk_bF$buf3 CLKBUF1
XCLKBUF1_6 asr2.clk vdd gnd asr2.clk_bF$buf2 CLKBUF1
XCLKBUF1_7 asr2.clk vdd gnd asr2.clk_bF$buf1 CLKBUF1
XCLKBUF1_8 asr2.clk vdd gnd asr2.clk_bF$buf0 CLKBUF1
XCLKBUF1_9 clk vdd gnd clk_bF$buf7 CLKBUF1
XCLKBUF1_10 clk vdd gnd clk_bF$buf6 CLKBUF1
XCLKBUF1_11 clk vdd gnd clk_bF$buf5 CLKBUF1
XCLKBUF1_12 clk vdd gnd clk_bF$buf4 CLKBUF1
XCLKBUF1_13 clk vdd gnd clk_bF$buf3 CLKBUF1
XCLKBUF1_14 clk vdd gnd clk_bF$buf2 CLKBUF1
XCLKBUF1_15 clk vdd gnd clk_bF$buf1 CLKBUF1
XCLKBUF1_16 clk vdd gnd clk_bF$buf0 CLKBUF1
XBUFX2_1 vdd gnd MAC.clr MAC.clr_bF$buf3 BUFX2
XBUFX2_2 vdd gnd MAC.clr MAC.clr_bF$buf2 BUFX2
XBUFX2_3 vdd gnd MAC.clr MAC.clr_bF$buf1 BUFX2
XBUFX2_4 vdd gnd MAC.clr MAC.clr_bF$buf0 BUFX2
XCLKBUF1_17 asr1.clk vdd gnd asr1.clk_bF$buf8 CLKBUF1
XCLKBUF1_18 asr1.clk vdd gnd asr1.clk_bF$buf7 CLKBUF1
XCLKBUF1_19 asr1.clk vdd gnd asr1.clk_bF$buf6 CLKBUF1
XCLKBUF1_20 asr1.clk vdd gnd asr1.clk_bF$buf5 CLKBUF1
XCLKBUF1_21 asr1.clk vdd gnd asr1.clk_bF$buf4 CLKBUF1
XCLKBUF1_22 asr1.clk vdd gnd asr1.clk_bF$buf3 CLKBUF1
XCLKBUF1_23 asr1.clk vdd gnd asr1.clk_bF$buf2 CLKBUF1
XCLKBUF1_24 asr1.clk vdd gnd asr1.clk_bF$buf1 CLKBUF1
XCLKBUF1_25 asr1.clk vdd gnd asr1.clk_bF$buf0 CLKBUF1
XBUFX2_5 vdd gnd rst rst_bF$buf5 BUFX2
XBUFX2_6 vdd gnd rst rst_bF$buf4 BUFX2
XBUFX2_7 vdd gnd rst rst_bF$buf3 BUFX2
XBUFX2_8 vdd gnd rst rst_bF$buf2 BUFX2
XBUFX2_9 vdd gnd rst rst_bF$buf1 BUFX2
XBUFX2_10 vdd gnd rst rst_bF$buf0 BUFX2
XBUFX2_11 vdd gnd MAC.ROM[0] MAC.ROM[0_bF$buf3] BUFX2
XBUFX2_12 vdd gnd MAC.ROM[0] MAC.ROM[0_bF$buf2] BUFX2
XBUFX2_13 vdd gnd MAC.ROM[0] MAC.ROM[0_bF$buf1] BUFX2
XBUFX2_14 vdd gnd MAC.ROM[0] MAC.ROM[0_bF$buf0] BUFX2
XBUFX2_15 vdd gnd asr2.en asr2.en_bF$buf10 BUFX2
XBUFX2_16 vdd gnd asr2.en asr2.en_bF$buf9 BUFX2
XBUFX2_17 vdd gnd asr2.en asr2.en_bF$buf8 BUFX2
XBUFX2_18 vdd gnd asr2.en asr2.en_bF$buf7 BUFX2
XBUFX2_19 vdd gnd asr2.en asr2.en_bF$buf6 BUFX2
XBUFX2_20 vdd gnd asr2.en asr2.en_bF$buf5 BUFX2
XBUFX2_21 vdd gnd asr2.en asr2.en_bF$buf4 BUFX2
XBUFX2_22 vdd gnd asr2.en asr2.en_bF$buf3 BUFX2
XBUFX2_23 vdd gnd asr2.en asr2.en_bF$buf2 BUFX2
XBUFX2_24 vdd gnd asr2.en asr2.en_bF$buf1 BUFX2
XBUFX2_25 vdd gnd asr2.en asr2.en_bF$buf0 BUFX2
XNOR2X1_1 vdd up_counter.contador[0] gnd _1_ up_counter.contador[1] NOR2X1
XNOR2X1_2 vdd rst_bF$buf3 gnd _2_ up_counter.contador[2] NOR2X1
XAND2X2_1 vdd gnd _1_ _2_ _0_ AND2X2
XINVX1_1 asr1.clk_bF$buf0 asr2.en vdd gnd INVX1
XBUFX2_26 vdd gnd _3_[0] dout[0] BUFX2
XBUFX2_27 vdd gnd _3_[1] dout[1] BUFX2
XBUFX2_28 vdd gnd _3_[2] dout[2] BUFX2
XBUFX2_29 vdd gnd _3_[3] dout[3] BUFX2
XBUFX2_30 vdd gnd _3_[4] dout[4] BUFX2
XBUFX2_31 vdd gnd _3_[5] dout[5] BUFX2
XBUFX2_32 vdd gnd _3_[6] dout[6] BUFX2
XBUFX2_33 vdd gnd _3_[7] dout[7] BUFX2
XDFFPOSX1_1 vdd _0_ gnd enable_asr clk_bF$buf4 DFFPOSX1
XINVX1_2 asr1.cables[1][0] _6_ vdd gnd INVX1
XNAND2X1_1 vdd _7_ gnd asr1.cables[0][0] vdd NAND2X1
XOAI21X1_1 gnd vdd vdd _6_ _4_[0] _7_ OAI21X1
XINVX1_3 asr1.cables[1][1] _8_ vdd gnd INVX1
XNAND2X1_2 vdd _9_ gnd vdd asr1.cables[0][1] NAND2X1
XOAI21X1_2 gnd vdd vdd _8_ _4_[1] _9_ OAI21X1
XINVX1_4 asr1.cables[1][2] _10_ vdd gnd INVX1
XNAND2X1_3 vdd _11_ gnd vdd asr1.cables[0][2] NAND2X1
XOAI21X1_3 gnd vdd vdd _10_ _4_[2] _11_ OAI21X1
XINVX1_5 asr1.cables[1][3] _12_ vdd gnd INVX1
XNAND2X1_4 vdd _13_ gnd vdd asr1.cables[0][3] NAND2X1
XOAI21X1_4 gnd vdd vdd _12_ _4_[3] _13_ OAI21X1
XINVX1_6 asr1.cables[1][4] _14_ vdd gnd INVX1
XNAND2X1_5 vdd _15_ gnd vdd asr1.cables[0][4] NAND2X1
XOAI21X1_5 gnd vdd vdd _14_ _4_[4] _15_ OAI21X1
XINVX1_7 asr1.cables[1][5] _16_ vdd gnd INVX1
XNAND2X1_6 vdd _17_ gnd vdd asr1.cables[0][5] NAND2X1
XOAI21X1_6 gnd vdd vdd _16_ _4_[5] _17_ OAI21X1
XINVX1_8 asr1.cables[1][6] _18_ vdd gnd INVX1
XNAND2X1_7 vdd _19_ gnd vdd asr1.cables[0][6] NAND2X1
XOAI21X1_7 gnd vdd vdd _18_ _4_[6] _19_ OAI21X1
XINVX1_9 asr1.cables[1][7] _20_ vdd gnd INVX1
XNAND2X1_8 vdd _21_ gnd vdd asr1.cables[0][7] NAND2X1
XOAI21X1_8 gnd vdd vdd _20_ _4_[7] _21_ OAI21X1
XINVX1_10 rst_bF$buf0 _5_ vdd gnd INVX1
XDFFSR_1 gnd vdd _4_[0] vdd _5_ asr1.cables[1][0] asr1.clk_bF$buf6 DFFSR
XDFFSR_2 gnd vdd _4_[1] vdd _5_ asr1.cables[1][1] asr1.clk_bF$buf2 DFFSR
XDFFSR_3 gnd vdd _4_[2] vdd _5_ asr1.cables[1][2] asr1.clk_bF$buf7 DFFSR
XDFFSR_4 gnd vdd _4_[3] vdd _5_ asr1.cables[1][3] asr1.clk_bF$buf7 DFFSR
XDFFSR_5 gnd vdd _4_[4] vdd _5_ asr1.cables[1][4] asr1.clk_bF$buf2 DFFSR
XDFFSR_6 gnd vdd _4_[5] vdd _5_ asr1.cables[1][5] asr1.clk_bF$buf0 DFFSR
XDFFSR_7 gnd vdd _4_[6] vdd _5_ asr1.cables[1][6] asr1.clk_bF$buf2 DFFSR
XDFFSR_8 gnd vdd _4_[7] vdd _5_ asr1.cables[1][7] asr1.clk_bF$buf0 DFFSR
XINVX1_11 asr1.cables[2][0] _24_ vdd gnd INVX1
XNAND2X1_9 vdd _25_ gnd asr1.cables[1][0] vdd NAND2X1
XOAI21X1_9 gnd vdd vdd _24_ _22_[0] _25_ OAI21X1
XINVX1_12 asr1.cables[2][1] _26_ vdd gnd INVX1
XNAND2X1_10 vdd _27_ gnd vdd asr1.cables[1][1] NAND2X1
XOAI21X1_10 gnd vdd vdd _26_ _22_[1] _27_ OAI21X1
XINVX1_13 asr1.cables[2][2] _28_ vdd gnd INVX1
XNAND2X1_11 vdd _29_ gnd vdd asr1.cables[1][2] NAND2X1
XOAI21X1_11 gnd vdd vdd _28_ _22_[2] _29_ OAI21X1
XINVX1_14 asr1.cables[2][3] _30_ vdd gnd INVX1
XNAND2X1_12 vdd _31_ gnd vdd asr1.cables[1][3] NAND2X1
XOAI21X1_12 gnd vdd vdd _30_ _22_[3] _31_ OAI21X1
XINVX1_15 asr1.cables[2][4] _32_ vdd gnd INVX1
XNAND2X1_13 vdd _33_ gnd vdd asr1.cables[1][4] NAND2X1
XOAI21X1_13 gnd vdd vdd _32_ _22_[4] _33_ OAI21X1
XINVX1_16 asr1.cables[2][5] _34_ vdd gnd INVX1
XNAND2X1_14 vdd _35_ gnd vdd asr1.cables[1][5] NAND2X1
XOAI21X1_14 gnd vdd vdd _34_ _22_[5] _35_ OAI21X1
XINVX1_17 asr1.cables[2][6] _36_ vdd gnd INVX1
XNAND2X1_15 vdd _37_ gnd vdd asr1.cables[1][6] NAND2X1
XOAI21X1_15 gnd vdd vdd _36_ _22_[6] _37_ OAI21X1
XINVX1_18 asr1.cables[2][7] _38_ vdd gnd INVX1
XNAND2X1_16 vdd _39_ gnd vdd asr1.cables[1][7] NAND2X1
XOAI21X1_16 gnd vdd vdd _38_ _22_[7] _39_ OAI21X1
XINVX1_19 rst_bF$buf2 _23_ vdd gnd INVX1
XDFFSR_9 gnd vdd _22_[0] vdd _23_ asr1.cables[2][0] asr1.clk_bF$buf6 DFFSR
XDFFSR_10 gnd vdd _22_[1] vdd _23_ asr1.cables[2][1] asr1.clk_bF$buf8 DFFSR
XDFFSR_11 gnd vdd _22_[2] vdd _23_ asr1.cables[2][2] asr1.clk_bF$buf7 DFFSR
XDFFSR_12 gnd vdd _22_[3] vdd _23_ asr1.cables[2][3] asr1.clk_bF$buf1 DFFSR
XDFFSR_13 gnd vdd _22_[4] vdd _23_ asr1.cables[2][4] asr1.clk_bF$buf7 DFFSR
XDFFSR_14 gnd vdd _22_[5] vdd _23_ asr1.cables[2][5] asr1.clk_bF$buf0 DFFSR
XDFFSR_15 gnd vdd _22_[6] vdd _23_ asr1.cables[2][6] asr1.clk_bF$buf4 DFFSR
XDFFSR_16 gnd vdd _22_[7] vdd _23_ asr1.cables[2][7] asr1.clk_bF$buf3 DFFSR
XINVX1_20 asr1.cables[3][0] _42_ vdd gnd INVX1
XNAND2X1_17 vdd _43_ gnd asr1.cables[2][0] vdd NAND2X1
XOAI21X1_17 gnd vdd vdd _42_ _40_[0] _43_ OAI21X1
XINVX1_21 asr1.cables[3][1] _44_ vdd gnd INVX1
XNAND2X1_18 vdd _45_ gnd vdd asr1.cables[2][1] NAND2X1
XOAI21X1_18 gnd vdd vdd _44_ _40_[1] _45_ OAI21X1
XINVX1_22 asr1.cables[3][2] _46_ vdd gnd INVX1
XNAND2X1_19 vdd _47_ gnd vdd asr1.cables[2][2] NAND2X1
XOAI21X1_19 gnd vdd vdd _46_ _40_[2] _47_ OAI21X1
XINVX1_23 asr1.cables[3][3] _48_ vdd gnd INVX1
XNAND2X1_20 vdd _49_ gnd vdd asr1.cables[2][3] NAND2X1
XOAI21X1_20 gnd vdd vdd _48_ _40_[3] _49_ OAI21X1
XINVX1_24 asr1.cables[3][4] _50_ vdd gnd INVX1
XNAND2X1_21 vdd _51_ gnd vdd asr1.cables[2][4] NAND2X1
XOAI21X1_21 gnd vdd vdd _50_ _40_[4] _51_ OAI21X1
XINVX1_25 asr1.cables[3][5] _52_ vdd gnd INVX1
XNAND2X1_22 vdd _53_ gnd vdd asr1.cables[2][5] NAND2X1
XOAI21X1_22 gnd vdd vdd _52_ _40_[5] _53_ OAI21X1
XINVX1_26 asr1.cables[3][6] _54_ vdd gnd INVX1
XNAND2X1_23 vdd _55_ gnd vdd asr1.cables[2][6] NAND2X1
XOAI21X1_23 gnd vdd vdd _54_ _40_[6] _55_ OAI21X1
XINVX1_27 asr1.cables[3][7] _56_ vdd gnd INVX1
XNAND2X1_24 vdd _57_ gnd vdd asr1.cables[2][7] NAND2X1
XOAI21X1_24 gnd vdd vdd _56_ _40_[7] _57_ OAI21X1
XINVX1_28 rst_bF$buf0 _41_ vdd gnd INVX1
XDFFSR_17 gnd vdd _40_[0] vdd _41_ asr1.cables[3][0] asr1.clk_bF$buf2 DFFSR
XDFFSR_18 gnd vdd _40_[1] vdd _41_ asr1.cables[3][1] asr1.clk_bF$buf5 DFFSR
XDFFSR_19 gnd vdd _40_[2] vdd _41_ asr1.cables[3][2] asr1.clk_bF$buf4 DFFSR
XDFFSR_20 gnd vdd _40_[3] vdd _41_ asr1.cables[3][3] asr1.clk_bF$buf1 DFFSR
XDFFSR_21 gnd vdd _40_[4] vdd _41_ asr1.cables[3][4] asr1.clk_bF$buf6 DFFSR
XDFFSR_22 gnd vdd _40_[5] vdd _41_ asr1.cables[3][5] asr1.clk_bF$buf3 DFFSR
XDFFSR_23 gnd vdd _40_[6] vdd _41_ asr1.cables[3][6] asr1.clk_bF$buf1 DFFSR
XDFFSR_24 gnd vdd _40_[7] vdd _41_ asr1.cables[3][7] asr1.clk_bF$buf5 DFFSR
XINVX1_29 asr1.cables[4] _60_ vdd gnd INVX1
XNAND2X1_25 vdd _61_ gnd asr1.cables[3][0] vdd NAND2X1
XOAI21X1_25 gnd vdd vdd _60_ _58_[0] _61_ OAI21X1
XINVX1_30 _76_ _62_ vdd gnd INVX1
XNAND2X1_26 vdd _63_ gnd vdd asr1.cables[3][1] NAND2X1
XOAI21X1_26 gnd vdd vdd _62_ _58_[1] _63_ OAI21X1
XINVX1_31 _82_ _64_ vdd gnd INVX1
XNAND2X1_27 vdd _65_ gnd vdd asr1.cables[3][2] NAND2X1
XOAI21X1_27 gnd vdd vdd _64_ _58_[2] _65_ OAI21X1
XINVX1_32 _77_ _66_ vdd gnd INVX1
XNAND2X1_28 vdd _67_ gnd vdd asr1.cables[3][3] NAND2X1
XOAI21X1_28 gnd vdd vdd _66_ _58_[3] _67_ OAI21X1
XINVX1_33 _78_ _68_ vdd gnd INVX1
XNAND2X1_29 vdd _69_ gnd vdd asr1.cables[3][4] NAND2X1
XOAI21X1_29 gnd vdd vdd _68_ _58_[4] _69_ OAI21X1
XINVX1_34 _79_ _70_ vdd gnd INVX1
XNAND2X1_30 vdd _71_ gnd vdd asr1.cables[3][5] NAND2X1
XOAI21X1_30 gnd vdd vdd _70_ _58_[5] _71_ OAI21X1
XINVX1_35 _80_ _72_ vdd gnd INVX1
XNAND2X1_31 vdd _73_ gnd vdd asr1.cables[3][6] NAND2X1
XOAI21X1_31 gnd vdd vdd _72_ _58_[6] _73_ OAI21X1
XINVX1_36 _81_ _74_ vdd gnd INVX1
XNAND2X1_32 vdd _75_ gnd vdd asr1.cables[3][7] NAND2X1
XOAI21X1_32 gnd vdd vdd _74_ _58_[7] _75_ OAI21X1
XINVX1_37 rst_bF$buf0 _59_ vdd gnd INVX1
XDFFSR_25 gnd vdd _58_[0] vdd _59_ asr1.cables[4] asr1.clk_bF$buf8 DFFSR
XDFFSR_26 gnd vdd _58_[1] vdd _59_ _76_ asr1.clk_bF$buf5 DFFSR
XDFFSR_27 gnd vdd _58_[2] vdd _59_ _82_ asr1.clk_bF$buf5 DFFSR
XDFFSR_28 gnd vdd _58_[3] vdd _59_ _77_ asr1.clk_bF$buf3 DFFSR
XDFFSR_29 gnd vdd _58_[4] vdd _59_ _78_ asr1.clk_bF$buf4 DFFSR
XDFFSR_30 gnd vdd _58_[5] vdd _59_ _79_ asr1.clk_bF$buf8 DFFSR
XDFFSR_31 gnd vdd _58_[6] vdd _59_ _80_ asr1.clk_bF$buf1 DFFSR
XDFFSR_32 gnd vdd _58_[7] vdd _59_ _81_ asr1.clk_bF$buf5 DFFSR
XINVX1_38 asr1.cables[5][0] _85_ vdd gnd INVX1
XNAND2X1_33 vdd _86_ gnd asr1.cables[4] vdd NAND2X1
XOAI21X1_33 gnd vdd vdd _85_ _83_[0] _86_ OAI21X1
XINVX1_39 asr1.cables[5][1] _87_ vdd gnd INVX1
XNAND2X1_34 vdd _88_ gnd vdd _76_ NAND2X1
XOAI21X1_34 gnd vdd vdd _87_ _83_[1] _88_ OAI21X1
XINVX1_40 asr1.cables[5][2] _89_ vdd gnd INVX1
XNAND2X1_35 vdd _90_ gnd vdd _82_ NAND2X1
XOAI21X1_35 gnd vdd vdd _89_ _83_[2] _90_ OAI21X1
XINVX1_41 asr1.cables[5][3] _91_ vdd gnd INVX1
XNAND2X1_36 vdd _92_ gnd vdd _77_ NAND2X1
XOAI21X1_36 gnd vdd vdd _91_ _83_[3] _92_ OAI21X1
XINVX1_42 asr1.cables[5][4] _93_ vdd gnd INVX1
XNAND2X1_37 vdd _94_ gnd vdd _78_ NAND2X1
XOAI21X1_37 gnd vdd vdd _93_ _83_[4] _94_ OAI21X1
XINVX1_43 asr1.cables[5][5] _95_ vdd gnd INVX1
XNAND2X1_38 vdd _96_ gnd vdd _79_ NAND2X1
XOAI21X1_38 gnd vdd vdd _95_ _83_[5] _96_ OAI21X1
XINVX1_44 asr1.cables[5][6] _97_ vdd gnd INVX1
XNAND2X1_39 vdd _98_ gnd vdd _80_ NAND2X1
XOAI21X1_39 gnd vdd vdd _97_ _83_[6] _98_ OAI21X1
XINVX1_45 asr1.cables[5][7] _99_ vdd gnd INVX1
XNAND2X1_40 vdd _100_ gnd vdd _81_ NAND2X1
XOAI21X1_40 gnd vdd vdd _99_ _83_[7] _100_ OAI21X1
XINVX1_46 rst_bF$buf0 _84_ vdd gnd INVX1
XDFFSR_33 gnd vdd _83_[0] vdd _84_ asr1.cables[5][0] asr1.clk_bF$buf3 DFFSR
XDFFSR_34 gnd vdd _83_[1] vdd _84_ asr1.cables[5][1] asr1.clk_bF$buf5 DFFSR
XDFFSR_35 gnd vdd _83_[2] vdd _84_ asr1.cables[5][2] asr1.clk_bF$buf2 DFFSR
XDFFSR_36 gnd vdd _83_[3] vdd _84_ asr1.cables[5][3] asr1.clk_bF$buf8 DFFSR
XDFFSR_37 gnd vdd _83_[4] vdd _84_ asr1.cables[5][4] asr1.clk_bF$buf2 DFFSR
XDFFSR_38 gnd vdd _83_[5] vdd _84_ asr1.cables[5][5] asr1.clk_bF$buf4 DFFSR
XDFFSR_39 gnd vdd _83_[6] vdd _84_ asr1.cables[5][6] asr1.clk_bF$buf8 DFFSR
XDFFSR_40 gnd vdd _83_[7] vdd _84_ asr1.cables[5][7] asr1.clk_bF$buf3 DFFSR
XINVX1_47 asr1.cables[6][0] _103_ vdd gnd INVX1
XNAND2X1_41 vdd _104_ gnd asr1.cables[5][0] vdd NAND2X1
XOAI21X1_41 gnd vdd vdd _103_ _101_[0] _104_ OAI21X1
XINVX1_48 asr1.cables[6][1] _105_ vdd gnd INVX1
XNAND2X1_42 vdd _106_ gnd vdd asr1.cables[5][1] NAND2X1
XOAI21X1_42 gnd vdd vdd _105_ _101_[1] _106_ OAI21X1
XINVX1_49 asr1.cables[6][2] _107_ vdd gnd INVX1
XNAND2X1_43 vdd _108_ gnd vdd asr1.cables[5][2] NAND2X1
XOAI21X1_43 gnd vdd vdd _107_ _101_[2] _108_ OAI21X1
XINVX1_50 asr1.cables[6][3] _109_ vdd gnd INVX1
XNAND2X1_44 vdd _110_ gnd vdd asr1.cables[5][3] NAND2X1
XOAI21X1_44 gnd vdd vdd _109_ _101_[3] _110_ OAI21X1
XINVX1_51 asr1.cables[6][4] _111_ vdd gnd INVX1
XNAND2X1_45 vdd _112_ gnd vdd asr1.cables[5][4] NAND2X1
XOAI21X1_45 gnd vdd vdd _111_ _101_[4] _112_ OAI21X1
XINVX1_52 asr1.cables[6][5] _113_ vdd gnd INVX1
XNAND2X1_46 vdd _114_ gnd vdd asr1.cables[5][5] NAND2X1
XOAI21X1_46 gnd vdd vdd _113_ _101_[5] _114_ OAI21X1
XINVX1_53 asr1.cables[6][6] _115_ vdd gnd INVX1
XNAND2X1_47 vdd _116_ gnd vdd asr1.cables[5][6] NAND2X1
XOAI21X1_47 gnd vdd vdd _115_ _101_[6] _116_ OAI21X1
XINVX1_54 asr1.cables[6][7] _117_ vdd gnd INVX1
XNAND2X1_48 vdd _118_ gnd vdd asr1.cables[5][7] NAND2X1
XOAI21X1_48 gnd vdd vdd _117_ _101_[7] _118_ OAI21X1
XINVX1_55 rst_bF$buf3 _102_ vdd gnd INVX1
XDFFSR_41 gnd vdd _101_[0] vdd _102_ asr1.cables[6][0] asr1.clk_bF$buf2 DFFSR
XDFFSR_42 gnd vdd _101_[1] vdd _102_ asr1.cables[6][1] asr1.clk_bF$buf5 DFFSR
XDFFSR_43 gnd vdd _101_[2] vdd _102_ asr1.cables[6][2] asr1.clk_bF$buf8 DFFSR
XDFFSR_44 gnd vdd _101_[3] vdd _102_ asr1.cables[6][3] asr1.clk_bF$buf8 DFFSR
XDFFSR_45 gnd vdd _101_[4] vdd _102_ asr1.cables[6][4] asr1.clk_bF$buf8 DFFSR
XDFFSR_46 gnd vdd _101_[5] vdd _102_ asr1.cables[6][5] asr1.clk_bF$buf0 DFFSR
XDFFSR_47 gnd vdd _101_[6] vdd _102_ asr1.cables[6][6] asr1.clk_bF$buf3 DFFSR
XDFFSR_48 gnd vdd _101_[7] vdd _102_ asr1.cables[6][7] asr1.clk_bF$buf5 DFFSR
XINVX1_56 asr1.cables[7][0] _121_ vdd gnd INVX1
XNAND2X1_49 vdd _122_ gnd asr1.cables[6][0] vdd NAND2X1
XOAI21X1_49 gnd vdd vdd _121_ _119_[0] _122_ OAI21X1
XINVX1_57 asr1.cables[7][1] _123_ vdd gnd INVX1
XNAND2X1_50 vdd _124_ gnd vdd asr1.cables[6][1] NAND2X1
XOAI21X1_50 gnd vdd vdd _123_ _119_[1] _124_ OAI21X1
XINVX1_58 asr1.cables[7][2] _125_ vdd gnd INVX1
XNAND2X1_51 vdd _126_ gnd vdd asr1.cables[6][2] NAND2X1
XOAI21X1_51 gnd vdd vdd _125_ _119_[2] _126_ OAI21X1
XINVX1_59 asr1.cables[7][3] _127_ vdd gnd INVX1
XNAND2X1_52 vdd _128_ gnd vdd asr1.cables[6][3] NAND2X1
XOAI21X1_52 gnd vdd vdd _127_ _119_[3] _128_ OAI21X1
XINVX1_60 asr1.cables[7][4] _129_ vdd gnd INVX1
XNAND2X1_53 vdd _130_ gnd vdd asr1.cables[6][4] NAND2X1
XOAI21X1_53 gnd vdd vdd _129_ _119_[4] _130_ OAI21X1
XINVX1_61 asr1.cables[7][5] _131_ vdd gnd INVX1
XNAND2X1_54 vdd _132_ gnd vdd asr1.cables[6][5] NAND2X1
XOAI21X1_54 gnd vdd vdd _131_ _119_[5] _132_ OAI21X1
XINVX1_62 asr1.cables[7][6] _133_ vdd gnd INVX1
XNAND2X1_55 vdd _134_ gnd vdd asr1.cables[6][6] NAND2X1
XOAI21X1_55 gnd vdd vdd _133_ _119_[6] _134_ OAI21X1
XINVX1_63 asr1.cables[7][7] _135_ vdd gnd INVX1
XNAND2X1_56 vdd _136_ gnd vdd asr1.cables[6][7] NAND2X1
XOAI21X1_56 gnd vdd vdd _135_ _119_[7] _136_ OAI21X1
XINVX1_64 rst_bF$buf3 _120_ vdd gnd INVX1
XDFFSR_49 gnd vdd _119_[0] vdd _120_ asr1.cables[7][0] asr1.clk_bF$buf2 DFFSR
XDFFSR_50 gnd vdd _119_[1] vdd _120_ asr1.cables[7][1] asr1.clk_bF$buf4 DFFSR
XDFFSR_51 gnd vdd _119_[2] vdd _120_ asr1.cables[7][2] asr1.clk_bF$buf4 DFFSR
XDFFSR_52 gnd vdd _119_[3] vdd _120_ asr1.cables[7][3] asr1.clk_bF$buf8 DFFSR
XDFFSR_53 gnd vdd _119_[4] vdd _120_ asr1.cables[7][4] asr1.clk_bF$buf8 DFFSR
XDFFSR_54 gnd vdd _119_[5] vdd _120_ asr1.cables[7][5] asr1.clk_bF$buf0 DFFSR
XDFFSR_55 gnd vdd _119_[6] vdd _120_ asr1.cables[7][6] asr1.clk_bF$buf3 DFFSR
XDFFSR_56 gnd vdd _119_[7] vdd _120_ asr1.cables[7][7] asr1.clk_bF$buf5 DFFSR
XINVX1_65 asr1.cables[8][0] _139_ vdd gnd INVX1
XNAND2X1_57 vdd _140_ gnd asr1.cables[7][0] vdd NAND2X1
XOAI21X1_57 gnd vdd vdd _139_ _137_[0] _140_ OAI21X1
XINVX1_66 asr1.cables[8][1] _141_ vdd gnd INVX1
XNAND2X1_58 vdd _142_ gnd vdd asr1.cables[7][1] NAND2X1
XOAI21X1_58 gnd vdd vdd _141_ _137_[1] _142_ OAI21X1
XINVX1_67 asr1.cables[8][2] _143_ vdd gnd INVX1
XNAND2X1_59 vdd _144_ gnd vdd asr1.cables[7][2] NAND2X1
XOAI21X1_59 gnd vdd vdd _143_ _137_[2] _144_ OAI21X1
XINVX1_68 asr1.cables[8][3] _145_ vdd gnd INVX1
XNAND2X1_60 vdd _146_ gnd vdd asr1.cables[7][3] NAND2X1
XOAI21X1_60 gnd vdd vdd _145_ _137_[3] _146_ OAI21X1
XINVX1_69 asr1.cables[8][4] _147_ vdd gnd INVX1
XNAND2X1_61 vdd _148_ gnd vdd asr1.cables[7][4] NAND2X1
XOAI21X1_61 gnd vdd vdd _147_ _137_[4] _148_ OAI21X1
XINVX1_70 asr1.cables[8][5] _149_ vdd gnd INVX1
XNAND2X1_62 vdd _150_ gnd vdd asr1.cables[7][5] NAND2X1
XOAI21X1_62 gnd vdd vdd _149_ _137_[5] _150_ OAI21X1
XINVX1_71 asr1.cables[8][6] _151_ vdd gnd INVX1
XNAND2X1_63 vdd _152_ gnd vdd asr1.cables[7][6] NAND2X1
XOAI21X1_63 gnd vdd vdd _151_ _137_[6] _152_ OAI21X1
XINVX1_72 asr1.cables[8][7] _153_ vdd gnd INVX1
XNAND2X1_64 vdd _154_ gnd vdd asr1.cables[7][7] NAND2X1
XOAI21X1_64 gnd vdd vdd _153_ _137_[7] _154_ OAI21X1
XINVX1_73 rst_bF$buf0 _138_ vdd gnd INVX1
XDFFSR_57 gnd vdd _137_[0] vdd _138_ asr1.cables[8][0] asr1.clk_bF$buf2 DFFSR
XDFFSR_58 gnd vdd _137_[1] vdd _138_ asr1.cables[8][1] asr1.clk_bF$buf4 DFFSR
XDFFSR_59 gnd vdd _137_[2] vdd _138_ asr1.cables[8][2] asr1.clk_bF$buf4 DFFSR
XDFFSR_60 gnd vdd _137_[3] vdd _138_ asr1.cables[8][3] asr1.clk_bF$buf0 DFFSR
XDFFSR_61 gnd vdd _137_[4] vdd _138_ asr1.cables[8][4] asr1.clk_bF$buf1 DFFSR
XDFFSR_62 gnd vdd _137_[5] vdd _138_ asr1.cables[8][5] asr1.clk_bF$buf3 DFFSR
XDFFSR_63 gnd vdd _137_[6] vdd _138_ asr1.cables[8][6] asr1.clk_bF$buf3 DFFSR
XDFFSR_64 gnd vdd _137_[7] vdd _138_ asr1.cables[8][7] asr1.clk_bF$buf4 DFFSR
XINVX1_74 asr2.cables[1][0] _157_ vdd gnd INVX1
XNAND2X1_65 vdd _158_ gnd asr1.q[0] asr2.en_bF$buf1 NAND2X1
XOAI21X1_65 gnd vdd asr2.en_bF$buf1 _157_ _155_[0] _158_ OAI21X1
XINVX1_75 asr2.cables[1][1] _159_ vdd gnd INVX1
XNAND2X1_66 vdd _160_ gnd asr2.en_bF$buf1 asr1.q[1] NAND2X1
XOAI21X1_66 gnd vdd asr2.en_bF$buf10 _159_ _155_[1] _160_ OAI21X1
XINVX1_76 asr2.cables[1][2] _161_ vdd gnd INVX1
XNAND2X1_67 vdd _162_ gnd asr2.en_bF$buf1 asr1.q[2] NAND2X1
XOAI21X1_67 gnd vdd asr2.en_bF$buf1 _161_ _155_[2] _162_ OAI21X1
XINVX1_77 asr2.cables[1][3] _163_ vdd gnd INVX1
XNAND2X1_68 vdd _164_ gnd asr2.en_bF$buf2 asr1.q[3] NAND2X1
XOAI21X1_68 gnd vdd asr2.en_bF$buf2 _163_ _155_[3] _164_ OAI21X1
XINVX1_78 asr2.cables[1][4] _165_ vdd gnd INVX1
XNAND2X1_69 vdd _166_ gnd asr2.en_bF$buf2 asr1.q[4] NAND2X1
XOAI21X1_69 gnd vdd asr2.en_bF$buf2 _165_ _155_[4] _166_ OAI21X1
XINVX1_79 asr2.cables[1][5] _167_ vdd gnd INVX1
XNAND2X1_70 vdd _168_ gnd asr2.en_bF$buf8 asr1.q[5] NAND2X1
XOAI21X1_70 gnd vdd asr2.en_bF$buf8 _167_ _155_[5] _168_ OAI21X1
XINVX1_80 asr2.cables[1][6] _169_ vdd gnd INVX1
XNAND2X1_71 vdd _170_ gnd asr2.en_bF$buf2 asr1.q[6] NAND2X1
XOAI21X1_71 gnd vdd asr2.en_bF$buf6 _169_ _155_[6] _170_ OAI21X1
XINVX1_81 asr2.cables[1][7] _171_ vdd gnd INVX1
XNAND2X1_72 vdd _172_ gnd asr2.en_bF$buf8 asr1.q[7] NAND2X1
XOAI21X1_72 gnd vdd asr2.en_bF$buf8 _171_ _155_[7] _172_ OAI21X1
XINVX1_82 rst_bF$buf5 _156_ vdd gnd INVX1
XDFFSR_65 gnd vdd _155_[0] vdd _156_ asr2.cables[1][0] asr2.clk_bF$buf5 DFFSR
XDFFSR_66 gnd vdd _155_[1] vdd _156_ asr2.cables[1][1] asr2.clk_bF$buf3 DFFSR
XDFFSR_67 gnd vdd _155_[2] vdd _156_ asr2.cables[1][2] asr2.clk_bF$buf6 DFFSR
XDFFSR_68 gnd vdd _155_[3] vdd _156_ asr2.cables[1][3] asr2.clk_bF$buf0 DFFSR
XDFFSR_69 gnd vdd _155_[4] vdd _156_ asr2.cables[1][4] asr2.clk_bF$buf0 DFFSR
XDFFSR_70 gnd vdd _155_[5] vdd _156_ asr2.cables[1][5] asr2.clk_bF$buf5 DFFSR
XDFFSR_71 gnd vdd _155_[6] vdd _156_ asr2.cables[1][6] asr2.clk_bF$buf7 DFFSR
XDFFSR_72 gnd vdd _155_[7] vdd _156_ asr2.cables[1][7] asr2.clk_bF$buf5 DFFSR
XINVX1_83 asr2.cables[2][0] _175_ vdd gnd INVX1
XNAND2X1_73 vdd _176_ gnd asr2.cables[1][0] asr2.en_bF$buf9 NAND2X1
XOAI21X1_73 gnd vdd asr2.en_bF$buf9 _175_ _173_[0] _176_ OAI21X1
XINVX1_84 asr2.cables[2][1] _177_ vdd gnd INVX1
XNAND2X1_74 vdd _178_ gnd asr2.en_bF$buf7 asr2.cables[1][1] NAND2X1
XOAI21X1_74 gnd vdd asr2.en_bF$buf7 _177_ _173_[1] _178_ OAI21X1
XINVX1_85 asr2.cables[2][2] _179_ vdd gnd INVX1
XNAND2X1_75 vdd _180_ gnd asr2.en_bF$buf1 asr2.cables[1][2] NAND2X1
XOAI21X1_75 gnd vdd asr2.en_bF$buf7 _179_ _173_[2] _180_ OAI21X1
XINVX1_86 asr2.cables[2][3] _181_ vdd gnd INVX1
XNAND2X1_76 vdd _182_ gnd asr2.en_bF$buf6 asr2.cables[1][3] NAND2X1
XOAI21X1_76 gnd vdd asr2.en_bF$buf6 _181_ _173_[3] _182_ OAI21X1
XINVX1_87 asr2.cables[2][4] _183_ vdd gnd INVX1
XNAND2X1_77 vdd _184_ gnd asr2.en_bF$buf2 asr2.cables[1][4] NAND2X1
XOAI21X1_77 gnd vdd asr2.en_bF$buf8 _183_ _173_[4] _184_ OAI21X1
XINVX1_88 asr2.cables[2][5] _185_ vdd gnd INVX1
XNAND2X1_78 vdd _186_ gnd asr2.en_bF$buf9 asr2.cables[1][5] NAND2X1
XOAI21X1_78 gnd vdd asr2.en_bF$buf7 _185_ _173_[5] _186_ OAI21X1
XINVX1_89 asr2.cables[2][6] _187_ vdd gnd INVX1
XNAND2X1_79 vdd _188_ gnd asr2.en_bF$buf3 asr2.cables[1][6] NAND2X1
XOAI21X1_79 gnd vdd asr2.en_bF$buf3 _187_ _173_[6] _188_ OAI21X1
XINVX1_90 asr2.cables[2][7] _189_ vdd gnd INVX1
XNAND2X1_80 vdd _190_ gnd asr2.en_bF$buf9 asr2.cables[1][7] NAND2X1
XOAI21X1_80 gnd vdd asr2.en_bF$buf8 _189_ _173_[7] _190_ OAI21X1
XINVX1_91 rst_bF$buf1 _174_ vdd gnd INVX1
XDFFSR_73 gnd vdd _173_[0] vdd _174_ asr2.cables[2][0] asr2.clk_bF$buf4 DFFSR
XDFFSR_74 gnd vdd _173_[1] vdd _174_ asr2.cables[2][1] asr2.clk_bF$buf3 DFFSR
XDFFSR_75 gnd vdd _173_[2] vdd _174_ asr2.cables[2][2] asr2.clk_bF$buf6 DFFSR
XDFFSR_76 gnd vdd _173_[3] vdd _174_ asr2.cables[2][3] asr2.clk_bF$buf2 DFFSR
XDFFSR_77 gnd vdd _173_[4] vdd _174_ asr2.cables[2][4] asr2.clk_bF$buf5 DFFSR
XDFFSR_78 gnd vdd _173_[5] vdd _174_ asr2.cables[2][5] asr2.clk_bF$buf3 DFFSR
XDFFSR_79 gnd vdd _173_[6] vdd _174_ asr2.cables[2][6] asr2.clk_bF$buf7 DFFSR
XDFFSR_80 gnd vdd _173_[7] vdd _174_ asr2.cables[2][7] asr2.clk_bF$buf5 DFFSR
XINVX1_92 asr2.cables[3][0] _193_ vdd gnd INVX1
XNAND2X1_81 vdd _194_ gnd asr2.cables[2][0] asr2.en_bF$buf6 NAND2X1
XOAI21X1_81 gnd vdd asr2.en_bF$buf6 _193_ _191_[0] _194_ OAI21X1
XINVX1_93 asr2.cables[3][1] _195_ vdd gnd INVX1
XNAND2X1_82 vdd _196_ gnd asr2.en_bF$buf7 asr2.cables[2][1] NAND2X1
XOAI21X1_82 gnd vdd asr2.en_bF$buf7 _195_ _191_[1] _196_ OAI21X1
XINVX1_94 asr2.cables[3][2] _197_ vdd gnd INVX1
XNAND2X1_83 vdd _198_ gnd asr2.en_bF$buf6 asr2.cables[2][2] NAND2X1
XOAI21X1_83 gnd vdd asr2.en_bF$buf6 _197_ _191_[2] _198_ OAI21X1
XINVX1_95 asr2.cables[3][3] _199_ vdd gnd INVX1
XNAND2X1_84 vdd _200_ gnd asr2.en_bF$buf5 asr2.cables[2][3] NAND2X1
XOAI21X1_84 gnd vdd asr2.en_bF$buf5 _199_ _191_[3] _200_ OAI21X1
XINVX1_96 asr2.cables[3][4] _201_ vdd gnd INVX1
XNAND2X1_85 vdd _202_ gnd asr2.en_bF$buf2 asr2.cables[2][4] NAND2X1
XOAI21X1_85 gnd vdd asr2.en_bF$buf2 _201_ _191_[4] _202_ OAI21X1
XINVX1_97 asr2.cables[3][5] _203_ vdd gnd INVX1
XNAND2X1_86 vdd _204_ gnd asr2.en_bF$buf10 asr2.cables[2][5] NAND2X1
XOAI21X1_86 gnd vdd asr2.en_bF$buf10 _203_ _191_[5] _204_ OAI21X1
XINVX1_98 asr2.cables[3][6] _205_ vdd gnd INVX1
XNAND2X1_87 vdd _206_ gnd asr2.en_bF$buf3 asr2.cables[2][6] NAND2X1
XOAI21X1_87 gnd vdd asr2.en_bF$buf10 _205_ _191_[6] _206_ OAI21X1
XINVX1_99 asr2.cables[3][7] _207_ vdd gnd INVX1
XNAND2X1_88 vdd _208_ gnd asr2.en_bF$buf7 asr2.cables[2][7] NAND2X1
XOAI21X1_88 gnd vdd asr2.en_bF$buf7 _207_ _191_[7] _208_ OAI21X1
XINVX1_100 rst_bF$buf2 _192_ vdd gnd INVX1
XDFFSR_81 gnd vdd _191_[0] vdd _192_ asr2.cables[3][0] asr2.clk_bF$buf2 DFFSR
XDFFSR_82 gnd vdd _191_[1] vdd _192_ asr2.cables[3][1] asr2.clk_bF$buf6 DFFSR
XDFFSR_83 gnd vdd _191_[2] vdd _192_ asr2.cables[3][2] asr2.clk_bF$buf2 DFFSR
XDFFSR_84 gnd vdd _191_[3] vdd _192_ asr2.cables[3][3] asr2.clk_bF$buf2 DFFSR
XDFFSR_85 gnd vdd _191_[4] vdd _192_ asr2.cables[3][4] asr2.clk_bF$buf6 DFFSR
XDFFSR_86 gnd vdd _191_[5] vdd _192_ asr2.cables[3][5] asr2.clk_bF$buf3 DFFSR
XDFFSR_87 gnd vdd _191_[6] vdd _192_ asr2.cables[3][6] asr2.clk_bF$buf4 DFFSR
XDFFSR_88 gnd vdd _191_[7] vdd _192_ asr2.cables[3][7] asr2.clk_bF$buf6 DFFSR
XINVX1_101 asr2.cables[4] _211_ vdd gnd INVX1
XNAND2X1_89 vdd _212_ gnd asr2.cables[3][0] asr2.en_bF$buf5 NAND2X1
XOAI21X1_89 gnd vdd asr2.en_bF$buf4 _211_ _209_[0] _212_ OAI21X1
XINVX1_102 _227_ _213_ vdd gnd INVX1
XNAND2X1_90 vdd _214_ gnd asr2.en_bF$buf7 asr2.cables[3][1] NAND2X1
XOAI21X1_90 gnd vdd asr2.en_bF$buf7 _213_ _209_[1] _214_ OAI21X1
XINVX1_103 _233_ _215_ vdd gnd INVX1
XNAND2X1_91 vdd _216_ gnd asr2.en_bF$buf0 asr2.cables[3][2] NAND2X1
XOAI21X1_91 gnd vdd asr2.en_bF$buf0 _215_ _209_[2] _216_ OAI21X1
XINVX1_104 _228_ _217_ vdd gnd INVX1
XNAND2X1_92 vdd _218_ gnd asr2.en_bF$buf5 asr2.cables[3][3] NAND2X1
XOAI21X1_92 gnd vdd asr2.en_bF$buf0 _217_ _209_[3] _218_ OAI21X1
XINVX1_105 _229_ _219_ vdd gnd INVX1
XNAND2X1_93 vdd _220_ gnd asr2.en_bF$buf7 asr2.cables[3][4] NAND2X1
XOAI21X1_93 gnd vdd asr2.en_bF$buf10 _219_ _209_[4] _220_ OAI21X1
XINVX1_106 _230_ _221_ vdd gnd INVX1
XNAND2X1_94 vdd _222_ gnd asr2.en_bF$buf9 asr2.cables[3][5] NAND2X1
XOAI21X1_94 gnd vdd asr2.en_bF$buf9 _221_ _209_[5] _222_ OAI21X1
XINVX1_107 _231_ _223_ vdd gnd INVX1
XNAND2X1_95 vdd _224_ gnd asr2.en_bF$buf3 asr2.cables[3][6] NAND2X1
XOAI21X1_95 gnd vdd asr2.en_bF$buf3 _223_ _209_[6] _224_ OAI21X1
XINVX1_108 _232_ _225_ vdd gnd INVX1
XNAND2X1_96 vdd _226_ gnd asr2.en_bF$buf10 asr2.cables[3][7] NAND2X1
XOAI21X1_96 gnd vdd asr2.en_bF$buf10 _225_ _209_[7] _226_ OAI21X1
XINVX1_109 rst_bF$buf5 _210_ vdd gnd INVX1
XDFFSR_89 gnd vdd _209_[0] vdd _210_ asr2.cables[4] asr2.clk_bF$buf1 DFFSR
XDFFSR_90 gnd vdd _209_[1] vdd _210_ _227_ asr2.clk_bF$buf6 DFFSR
XDFFSR_91 gnd vdd _209_[2] vdd _210_ _233_ asr2.clk_bF$buf0 DFFSR
XDFFSR_92 gnd vdd _209_[3] vdd _210_ _228_ asr2.clk_bF$buf0 DFFSR
XDFFSR_93 gnd vdd _209_[4] vdd _210_ _229_ asr2.clk_bF$buf3 DFFSR
XDFFSR_94 gnd vdd _209_[5] vdd _210_ _230_ asr2.clk_bF$buf3 DFFSR
XDFFSR_95 gnd vdd _209_[6] vdd _210_ _231_ asr2.clk_bF$buf7 DFFSR
XDFFSR_96 gnd vdd _209_[7] vdd _210_ _232_ asr2.clk_bF$buf3 DFFSR
XINVX1_110 asr2.cables[5][0] _236_ vdd gnd INVX1
XNAND2X1_97 vdd _237_ gnd asr2.cables[4] asr2.en_bF$buf5 NAND2X1
XOAI21X1_97 gnd vdd asr2.en_bF$buf5 _236_ _234_[0] _237_ OAI21X1
XINVX1_111 asr2.cables[5][1] _238_ vdd gnd INVX1
XNAND2X1_98 vdd _239_ gnd asr2.en_bF$buf7 _227_ NAND2X1
XOAI21X1_98 gnd vdd asr2.en_bF$buf1 _238_ _234_[1] _239_ OAI21X1
XINVX1_112 asr2.cables[5][2] _240_ vdd gnd INVX1
XNAND2X1_99 vdd _241_ gnd asr2.en_bF$buf0 _233_ NAND2X1
XOAI21X1_99 gnd vdd asr2.en_bF$buf0 _240_ _234_[2] _241_ OAI21X1
XINVX1_113 asr2.cables[5][3] _242_ vdd gnd INVX1
XNAND2X1_100 vdd _243_ gnd asr2.en_bF$buf0 _228_ NAND2X1
XOAI21X1_100 gnd vdd asr2.en_bF$buf4 _242_ _234_[3] _243_ OAI21X1
XINVX1_114 asr2.cables[5][4] _244_ vdd gnd INVX1
XNAND2X1_101 vdd _245_ gnd asr2.en_bF$buf9 _229_ NAND2X1
XOAI21X1_101 gnd vdd asr2.en_bF$buf9 _244_ _234_[4] _245_ OAI21X1
XINVX1_115 asr2.cables[5][5] _246_ vdd gnd INVX1
XNAND2X1_102 vdd _247_ gnd asr2.en_bF$buf9 _230_ NAND2X1
XOAI21X1_102 gnd vdd asr2.en_bF$buf8 _246_ _234_[5] _247_ OAI21X1
XINVX1_116 asr2.cables[5][6] _248_ vdd gnd INVX1
XNAND2X1_103 vdd _249_ gnd asr2.en_bF$buf3 _231_ NAND2X1
XOAI21X1_103 gnd vdd asr2.en_bF$buf3 _248_ _234_[6] _249_ OAI21X1
XINVX1_117 asr2.cables[5][7] _250_ vdd gnd INVX1
XNAND2X1_104 vdd _251_ gnd asr2.en_bF$buf10 _232_ NAND2X1
XOAI21X1_104 gnd vdd asr2.en_bF$buf10 _250_ _234_[7] _251_ OAI21X1
XINVX1_118 rst_bF$buf1 _235_ vdd gnd INVX1
XDFFSR_97 gnd vdd _234_[0] vdd _235_ asr2.cables[5][0] asr2.clk_bF$buf1 DFFSR
XDFFSR_98 gnd vdd _234_[1] vdd _235_ asr2.cables[5][1] asr2.clk_bF$buf6 DFFSR
XDFFSR_99 gnd vdd _234_[2] vdd _235_ asr2.cables[5][2] asr2.clk_bF$buf0 DFFSR
XDFFSR_100 gnd vdd _234_[3] vdd _235_ asr2.cables[5][3] asr2.clk_bF$buf0 DFFSR
XDFFSR_101 gnd vdd _234_[4] vdd _235_ asr2.cables[5][4] asr2.clk_bF$buf4 DFFSR
XDFFSR_102 gnd vdd _234_[5] vdd _235_ asr2.cables[5][5] asr2.clk_bF$buf5 DFFSR
XDFFSR_103 gnd vdd _234_[6] vdd _235_ asr2.cables[5][6] asr2.clk_bF$buf4 DFFSR
XDFFSR_104 gnd vdd _234_[7] vdd _235_ asr2.cables[5][7] asr2.clk_bF$buf3 DFFSR
XINVX1_119 asr2.cables[6][0] _254_ vdd gnd INVX1
XNAND2X1_105 vdd _255_ gnd asr2.cables[5][0] asr2.en_bF$buf4 NAND2X1
XOAI21X1_105 gnd vdd asr2.en_bF$buf4 _254_ _252_[0] _255_ OAI21X1
XINVX1_120 asr2.cables[6][1] _256_ vdd gnd INVX1
XNAND2X1_106 vdd _257_ gnd asr2.en_bF$buf1 asr2.cables[5][1] NAND2X1
XOAI21X1_106 gnd vdd asr2.en_bF$buf1 _256_ _252_[1] _257_ OAI21X1
XINVX1_121 asr2.cables[6][2] _258_ vdd gnd INVX1
XNAND2X1_107 vdd _259_ gnd asr2.en_bF$buf0 asr2.cables[5][2] NAND2X1
XOAI21X1_107 gnd vdd asr2.en_bF$buf0 _258_ _252_[2] _259_ OAI21X1
XINVX1_122 asr2.cables[6][3] _260_ vdd gnd INVX1
XNAND2X1_108 vdd _261_ gnd asr2.en_bF$buf2 asr2.cables[5][3] NAND2X1
XOAI21X1_108 gnd vdd asr2.en_bF$buf6 _260_ _252_[3] _261_ OAI21X1
XINVX1_123 asr2.cables[6][4] _262_ vdd gnd INVX1
XNAND2X1_109 vdd _263_ gnd asr2.en_bF$buf6 asr2.cables[5][4] NAND2X1
XOAI21X1_109 gnd vdd asr2.en_bF$buf5 _262_ _252_[4] _263_ OAI21X1
XINVX1_124 asr2.cables[6][5] _264_ vdd gnd INVX1
XNAND2X1_110 vdd _265_ gnd asr2.en_bF$buf8 asr2.cables[5][5] NAND2X1
XOAI21X1_110 gnd vdd asr2.en_bF$buf1 _264_ _252_[5] _265_ OAI21X1
XINVX1_125 asr2.cables[6][6] _266_ vdd gnd INVX1
XNAND2X1_111 vdd _267_ gnd asr2.en_bF$buf3 asr2.cables[5][6] NAND2X1
XOAI21X1_111 gnd vdd asr2.en_bF$buf3 _266_ _252_[6] _267_ OAI21X1
XINVX1_126 asr2.cables[6][7] _268_ vdd gnd INVX1
XNAND2X1_112 vdd _269_ gnd asr2.en_bF$buf10 asr2.cables[5][7] NAND2X1
XOAI21X1_112 gnd vdd asr2.en_bF$buf10 _268_ _252_[7] _269_ OAI21X1
XINVX1_127 rst_bF$buf2 _253_ vdd gnd INVX1
XDFFSR_105 gnd vdd _252_[0] vdd _253_ asr2.cables[6][0] asr2.clk_bF$buf1 DFFSR
XDFFSR_106 gnd vdd _252_[1] vdd _253_ asr2.cables[6][1] asr2.clk_bF$buf6 DFFSR