*SPEF "IEEE 1481.1999"
*DESIGN "FIR"
*DATE "20:26:52 Friday July 05, 2019"
*VENDOR "unknown"
*PROGRAM "qrouter"
*VERSION "unknown"
*DESIGN_FLOW "qflow"
*DIVIDER /
*DELIMITER :
*BUS_DELIMITER <>
*T_UNIT 1 PS
*C_UNIT 1 FF
*R_UNIT 1 OHM
*L_UNIT 1 HENRY

*NAME_MAP
*1 up_counter_contador[0]
*2 DFFPOSX1_29
*3 NOR2X1_54
*4 NAND3X1_134
*5 NAND2X1_285
*6 INVX1_266
*7 NAND3X1_115
*8 NAND3X1_118
*9 NAND3X1_130
*10 XOR2X1_9
*11 NAND3X1_131
*12 NAND2X1_252
*13 INVX1_403
*14 OAI21X1_265
*15 AOI21X1_47
*16 NOR2X1_1
*17 NAND3X1_111
*18 NAND3X1_117
*19 MAC_ROM[1]
*20 DFFSR_169
*21 INVX1_204
*22 NAND2X1_204
*23 AND2X2_6
*24 INVX1_216
*25 AOI22X1_2
*26 NAND2X1_193
*27 AND2X2_7
*28 AOI22X1_1
*29 AND2X2_4
*30 NAND3X1_3
*31 NAND2X1_178
*32 AOI22X1_6
*33 NAND3X1_39
*34 NAND3X1_63
*35 NAND2X1_215
*36 AOI22X1_9
*37 up_counter_contador[1]
*38 DFFPOSX1_30
*39 OAI21X1_265
*40 NOR2X1_1
*41 NAND3X1_117
*42 NAND2X1_285
*43 INVX1_264
*44 NAND3X1_113
*45 NAND3X1_115
*46 NAND3X1_114
*47 XOR2X1_9
*48 NAND3X1_130
*49 NAND2X1_252
*50 NAND3X1_131
*51 NAND3X1_134
*52 AOI21X1_47
*53 asr2_en_bF_buf10
*54 BUFX2_15
*55 NAND2X1_120
*56 NAND2X1_112
*57 OAI21X1_112
*58 NAND2X1_96
*59 OAI21X1_96
*60 OAI21X1_86
*61 NAND2X1_86
*62 OAI21X1_87
*63 OAI21X1_93
*64 NAND2X1_104
*65 OAI21X1_104
*66 OAI21X1_66
*67 asr2_en_bF_buf9
*68 BUFX2_16
*69 OAI21X1_120
*70 NAND2X1_101
*71 OAI21X1_101
*72 OAI21X1_126
*73 NAND2X1_126
*74 OAI21X1_73
*75 NAND2X1_94
*76 OAI21X1_94
*77 NAND2X1_73
*78 NAND2X1_102
*79 NAND2X1_80
*80 NAND2X1_78
*81 asr2_en_bF_buf8
*82 BUFX2_17
*83 OAI21X1_80
*84 OAI21X1_102
*85 OAI21X1_118
*86 NAND2X1_110
*87 OAI21X1_72
*88 OAI21X1_77
*89 NAND2X1_70
*90 NAND2X1_72
*91 OAI21X1_70
*92 NAND2X1_114
*93 OAI21X1_116
*94 NAND2X1_116
*95 asr2_en_bF_buf7
*96 BUFX2_18
*97 NAND2X1_88
*98 NAND2X1_93
*99 OAI21X1_75
*100 NAND2X1_98
*101 OAI21X1_82
*102 NAND2X1_82
*103 OAI21X1_74
*104 NAND2X1_90
*105 OAI21X1_78
*106 NAND2X1_74
*107 OAI21X1_90
*108 OAI21X1_88
*109 asr2_en_bF_buf6
*110 BUFX2_19
*111 OAI21X1_81
*112 OAI21X1_76
*113 OAI21X1_122
*114 NAND2X1_109
*115 OAI21X1_108
*116 NAND2X1_83
*117 OAI21X1_83
*118 NAND2X1_76
*119 OAI21X1_128
*120 OAI21X1_71
*121 NAND2X1_81
*122 NAND2X1_122
*123 asr2_en_bF_buf5
*124 BUFX2_20
*125 OAI21X1_121
*126 OAI21X1_119
*127 NAND2X1_121
*128 NAND2X1_89
*129 NAND2X1_119
*130 NAND2X1_127
*131 OAI21X1_97
*132 NAND2X1_97
*133 OAI21X1_109
*134 OAI21X1_84
*135 NAND2X1_92
*136 NAND2X1_84
*137 asr2_en_bF_buf4
*138 BUFX2_21
*139 OAI21X1_127
*140 NAND2X1_105
*141 OAI21X1_105
*142 NAND2X1_113
*143 OAI21X1_113
*144 OAI21X1_89
*145 OAI21X1_125
*146 NAND2X1_125
*147 NAND2X1_117
*148 OAI21X1_117
*149 OAI21X1_123
*150 OAI21X1_100
*151 _696_
*152 INVX1_212
*153 NAND2X1_177
*154 OAI21X1_211
*155 OAI21X1_177
*156 NAND3X1_2
*157 OAI22X1_3
*158 OAI21X1_229
*159 OAI21X1_238
*160 NAND3X1_61
*161 OAI21X1_199
*162 NAND3X1_34
*163 OAI21X1_181
*164 OAI21X1_182
*165 asr2_en
*166 INVX1_1
*167 BUFX2_23
*168 BUFX2_25
*169 BUFX2_20
*170 BUFX2_21
*171 BUFX2_19
*172 BUFX2_22
*173 BUFX2_16
*174 BUFX2_15
*175 BUFX2_17
*176 BUFX2_18
*177 BUFX2_24
*178 asr2_en_bF_buf3
*179 BUFX2_22
*180 NAND2X1_103
*181 OAI21X1_103
*182 NAND2X1_95
*183 OAI21X1_95
*184 NAND2X1_87
*185 NAND2X1_111
*186 OAI21X1_111
*187 NAND2X1_128
*188 NAND2X1_79
*189 OAI21X1_79
*190 OAI21X1_114
*191 asr2_en_bF_buf2
*192 BUFX2_23
*193 NAND2X1_69
*194 OAI21X1_68
*195 OAI21X1_69
*196 NAND2X1_108
*197 NAND2X1_68
*198 OAI21X1_124
*199 NAND2X1_124
*200 OAI21X1_85
*201 NAND2X1_85
*202 NAND2X1_77
*203 NAND2X1_71
*204 asr2_en_bF_buf1
*205 BUFX2_24
*206 NAND2X1_118
*207 OAI21X1_110
*208 OAI21X1_65
*209 NAND2X1_75
*210 NAND2X1_65
*211 NAND2X1_66
*212 NAND2X1_67
*213 OAI21X1_67
*214 NAND2X1_106
*215 OAI21X1_106
*216 OAI21X1_98
*217 asr2_en_bF_buf0
*218 BUFX2_25
*219 NAND2X1_115
*220 NAND2X1_107
*221 NAND2X1_91
*222 NAND2X1_123
*223 NAND2X1_100
*224 OAI21X1_92
*225 OAI21X1_107
*226 OAI21X1_115
*227 OAI21X1_91
*228 NAND2X1_99
*229 OAI21X1_99
*230 up_counter_contador[2]
*231 DFFPOSX1_31
*232 NAND3X1_118
*233 NAND3X1_114
*234 INVX1_265
*235 NAND3X1_116
*236 NAND2X1_286
*237 NAND3X1_117
*238 NOR2X1_2
*239 NAND2X1_253
*240 NAND3X1_131
*241 INVX1_404
*242 INVX1_438
*243 clk_bF_buf7
*244 CLKBUF1_9
*245 DFFPOSX1_10
*246 DFFPOSX1_12
*247 DFFSR_136
*248 DFFSR_144
*249 DFFSR_134
*250 DFFSR_140
*251 DFFSR_141
*252 DFFSR_142
*253 DFFSR_150
*254 DFFSR_143
*255 clk_bF_buf6
*256 CLKBUF1_10
*257 DFFPOSX1_4
*258 DFFPOSX1_19
*259 DFFPOSX1_28
*260 DFFSR_163
*261 DFFSR_166
*262 DFFPOSX1_6
*263 DFFSR_160
*264 DFFSR_164
*265 DFFPOSX1_2
*266 DFFPOSX1_5
*267 clk_bF_buf5
*268 CLKBUF1_11
*269 DFFSR_133
*270 DFFSR_137
*271 DFFSR_151
*272 DFFSR_153
*273 DFFSR_154
*274 DFFSR_152
*275 DFFSR_135
*276 DFFPOSX1_21
*277 DFFPOSX1_30
*278 DFFSR_155
*279 clk_bF_buf4
*280 CLKBUF1_12
*281 DFFSR_149
*282 DFFSR_148
*283 DFFSR_157
*284 DFFPOSX1_1
*285 DFFSR_156
*286 DFFPOSX1_14
*287 DFFSR_145
*288 DFFSR_146
*289 DFFSR_147
*290 DFFPOSX1_13
*291 clk_bF_buf3
*292 CLKBUF1_13
*293 DFFSR_132
*294 DFFSR_129
*295 DFFSR_130
*296 DFFSR_139
*297 DFFPOSX1_11
*298 DFFSR_131
*299 DFFPOSX1_29
*300 DFFPOSX1_22
*301 DFFSR_138
*302 DFFPOSX1_31
*303 clk_bF_buf2
*304 CLKBUF1_14
*305 DFFSR_158
*306 DFFPOSX1_15
*307 DFFPOSX1_16
*308 DFFSR_175
*309 DFFSR_173
*310 DFFSR_174
*311 DFFPOSX1_23
*312 DFFSR_162
*313 DFFSR_161
*314 DFFSR_165
*315 asr1_clk_bF_buf8
*316 CLKBUF1_17
*317 DFFSR_44
*318 DFFSR_10
*319 DFFSR_45
*320 DFFSR_36
*321 DFFSR_30
*322 DFFSR_25
*323 DFFSR_52
*324 DFFSR_53
*325 DFFSR_39
*326 DFFSR_43
*327 MAC_Adder[2]
*328 DFFPOSX1_23
*329 AND2X2_9
*330 NAND2X1_228
*331 NAND2X1_210
*332 NAND2X1_191
*333 NAND2X1_181
*334 AND2X2_4
*335 AOI22X1_1
*336 AND2X2_2
*337 AOI22X1_2
*338 INVX1_226
*339 MAC_Adder[3]
*340 DFFPOSX1_24
*341 NAND2X1_202
*342 NAND2X1_213
*343 NAND2X1_211
*344 INVX1_227
*345 AOI22X1_2
*346 AOI22X1_6
*347 NAND2X1_193
*348 AND2X2_7
*349 NAND2X1_187
*350 AND2X2_5
*351 down_counter_contador[0]
*352 DFFPOSX1_10
*353 OAI21X1_240
*354 NAND2X1_250
*355 NAND3X1_126
*356 INVX1_333
*357 NAND3X1_123
*358 NAND3X1_125
*359 NAND3X1_119
*360 AOI21X1_40
*361 OAI21X1_239
*362 INVX1_397
*363 asr2_clk_bF_buf7
*364 CLKBUF1_1
*365 DFFSR_122
*366 DFFSR_128
*367 DFFSR_71
*368 DFFSR_114
*369 DFFSR_95
*370 DFFSR_79
*371 DFFSR_116
*372 DFFSR_108
*373 DFFSR_124
*374 clk_bF_buf1
*375 CLKBUF1_15
*376 DFFPOSX1_27
*377 DFFSR_171
*378 DFFSR_172
*379 DFFPOSX1_3
*380 DFFPOSX1_7
*381 DFFSR_167
*382 DFFPOSX1_8
*383 DFFPOSX1_9
*384 DFFSR_159
*385 clk_bF_buf0
*386 CLKBUF1_16
*387 DFFSR_168
*388 DFFPOSX1_26
*389 DFFPOSX1_17
*390 DFFPOSX1_18
*391 DFFPOSX1_20
*392 DFFPOSX1_25
*393 DFFSR_170
*394 DFFPOSX1_24
*395 DFFSR_169
*396 asr1_clk
*397 INVX1_402
*398 CLKBUF1_22
*399 CLKBUF1_18
*400 CLKBUF1_23
*401 CLKBUF1_21
*402 CLKBUF1_20
*403 CLKBUF1_19
*404 CLKBUF1_17
*405 CLKBUF1_25
*406 CLKBUF1_24
*407 asr1_clk_bF_buf7
*408 CLKBUF1_18
*409 DFFSR_182
*410 DFFSR_177
*411 DFFSR_180
*412 DFFSR_187
*413 DFFSR_176
*414 DFFSR_4
*415 DFFSR_11
*416 DFFSR_13
*417 DFFSR_3
*418 asr1_clk_bF_buf6
*419 CLKBUF1_19
*420 DFFSR_178
*421 DFFSR_1
*422 DFFSR_179
*423 DFFSR_184
*424 DFFSR_189
*425 DFFSR_188
*426 DFFSR_190
*427 DFFSR_21
*428 DFFSR_9
*429 asr1_clk_bF_buf5
*430 CLKBUF1_20
*431 DFFSR_48
*432 DFFSR_42
*433 DFFSR_24
*434 DFFSR_56
*435 DFFSR_27
*436 DFFSR_32
*437 DFFSR_34
*438 DFFSR_18
*439 DFFSR_26
*440 asr1_clk_bF_buf4
*441 CLKBUF1_21
*442 DFFSR_38
*443 DFFSR_50
*444 DFFSR_15
*445 DFFSR_64
*446 DFFSR_58
*447 DFFSR_59
*448 DFFSR_51
*449 DFFSR_29
*450 DFFSR_19
*451 asr1_clk_bF_buf3
*452 CLKBUF1_22
*453 DFFSR_62
*454 DFFSR_28
*455 DFFSR_33
*456 DFFSR_55
*457 DFFSR_47
*458 DFFSR_40
*459 DFFSR_63
*460 DFFSR_22
*461 DFFSR_16
*462 asr1_clk_bF_buf2
*463 CLKBUF1_23
*464 DFFSR_2
*465 DFFSR_5
*466 DFFSR_37
*467 DFFSR_35
*468 DFFSR_17
*469 DFFSR_41
*470 DFFSR_7
*471 DFFSR_49
*472 DFFSR_57
*473 asr1_clk_bF_buf1
*474 CLKBUF1_24
*475 DFFSR_183
*476 DFFSR_20
*477 DFFSR_186
*478 DFFSR_185
*479 DFFSR_191
*480 DFFSR_12
*481 DFFSR_31
*482 DFFSR_23
*483 DFFSR_61
*484 asr1_clk_bF_buf0
*485 CLKBUF1_25
*486 DFFSR_46
*487 DFFSR_54
*488 DFFSR_8
*489 DFFSR_60
*490 DFFSR_6
*491 NAND3X1_129
*492 DFFSR_14
*493 DFFSR_181
*494 INVX1_1
*495 MAC_Adder[1]
*496 DFFPOSX1_22
*497 NAND2X1_178
*498 NAND3X1_3
*499 AOI22X1_1
*500 NAND2X1_185
*501 NAND2X1_189
*502 AND2X2_8
*503 NAND2X1_190
*504 NAND2X1_223
*505 INVX1_215
*506 down_counter_contador[1]
*507 DFFPOSX1_11
*508 OAI21X1_239
*509 AOI21X1_40
*510 OAI21X1_240
*511 INVX1_398
*512 INVX1_331
*513 NAND3X1_122
*514 NAND3X1_121
*515 NAND3X1_123
*516 NAND3X1_125
*517 asr2_clk
*518 DFFSR_149
*519 CLKBUF1_7
*520 CLKBUF1_8
*521 CLKBUF1_6
*522 CLKBUF1_2
*523 CLKBUF1_3
*524 CLKBUF1_5
*525 CLKBUF1_4
*526 CLKBUF1_1
*527 asr2_clk_bF_buf6
*528 CLKBUF1_2
*529 DFFSR_85
*530 DFFSR_88
*531 DFFSR_90
*532 DFFSR_75
*533 DFFSR_67
*534 DFFSR_106
*535 DFFSR_98
*536 DFFSR_82
*537 asr2_clk_bF_buf5
*538 CLKBUF1_3
*539 DFFSR_77
*540 DFFSR_102
*541 DFFSR_72
*542 DFFSR_70
*543 DFFSR_110
*544 DFFSR_65
*545 DFFSR_118
*546 DFFSR_80
*547 asr2_clk_bF_buf4
*548 CLKBUF1_4
*549 DFFSR_111
*550 DFFSR_103
*551 DFFSR_126
*552 DFFSR_101
*553 DFFSR_73
*554 DFFSR_120
*555 DFFSR_112
*556 DFFSR_87
*557 asr2_clk_bF_buf3
*558 CLKBUF1_5
*559 DFFSR_93
*560 DFFSR_96
*561 DFFSR_78
*562 DFFSR_86
*563 DFFSR_74
*564 DFFSR_104
*565 DFFSR_94
*566 DFFSR_66
*567 asr2_clk_bF_buf2
*568 CLKBUF1_6
*569 DFFSR_84
*570 DFFSR_127
*571 DFFSR_121
*572 DFFSR_119
*573 DFFSR_81
*574 DFFSR_76
*575 DFFSR_107
*576 DFFSR_83
*577 asr2_clk_bF_buf1
*578 CLKBUF1_7
*579 DFFSR_109
*580 DFFSR_125
*581 DFFSR_113
*582 DFFSR_105
*583 DFFSR_89
*584 DFFSR_97
*585 DFFSR_117
*586 DFFSR_123
*587 asr2_clk_bF_buf0
*588 CLKBUF1_8
*589 DFFSR_69
*590 DFFSR_68
*591 DFFSR_91
*592 DFFSR_115
*593 DFFSR_99
*594 DFFSR_100
*595 INVX1_172
*596 DFFSR_92
*597 clk
*598 CLKBUF1_13
*599 CLKBUF1_9
*600 CLKBUF1_11
*601 CLKBUF1_12
*602 CLKBUF1_14
*603 CLKBUF1_16
*604 CLKBUF1_15
*605 CLKBUF1_10
*606 rst_bF_buf5
*607 BUFX2_5
*608 INVX1_179
*609 INVX1_82
*610 INVX1_136
*611 INVX1_189
*612 INVX1_171
*613 INVX1_173
*614 INVX1_109
*615 INVX1_145
*616 rst_bF_buf4
*617 BUFX2_6
*618 NOR2X1_44
*619 INVX1_165
*620 INVX1_187
*621 INVX1_167
*622 INVX1_169
*623 AOI21X1_42
*624 INVX1_437
*625 INVX1_400
*626 rst_bF_buf3
*627 BUFX2_7
*628 NOR2X1_2
*629 INVX1_55
*630 INVX1_64
*631 INVX1_211
*632 INVX1_423
*633 INVX1_202
*634 INVX1_193
*635 INVX1_191
*636 rst_bF_buf2
*637 BUFX2_8
*638 INVX1_396
*639 INVX1_154
*640 AOI21X1_40
*641 INVX1_127
*642 INVX1_414
*643 NOR2X1_54
*644 INVX1_19
*645 INVX1_100
*646 _5_
*647 INVX1_10
*648 DFFSR_8
*649 DFFSR_6
*650 DFFSR_7
*651 DFFSR_5
*652 DFFSR_2
*653 DFFSR_3
*654 DFFSR_1
*655 DFFSR_4
*656 _23_
*657 INVX1_19
*658 DFFSR_15
*659 DFFSR_9
*660 DFFSR_13
*661 DFFSR_11
*662 DFFSR_10
*663 DFFSR_16
*664 DFFSR_14
*665 DFFSR_12
*666 _41_
*667 INVX1_28
*668 DFFSR_22
*669 DFFSR_24
*670 DFFSR_18
*671 DFFSR_19
*672 DFFSR_21
*673 DFFSR_17
*674 DFFSR_23
*675 DFFSR_20
*676 _59_
*677 INVX1_37
*678 DFFSR_28
*679 DFFSR_25
*680 DFFSR_30
*681 DFFSR_29
*682 DFFSR_32
*683 DFFSR_26
*684 DFFSR_27
*685 DFFSR_31
*686 _84_
*687 INVX1_46
*688 DFFSR_40
*689 DFFSR_33
*690 DFFSR_39
*691 DFFSR_36
*692 DFFSR_37
*693 DFFSR_35
*694 DFFSR_38
*695 DFFSR_34
*696 _102_
*697 INVX1_55
*698 DFFSR_46
*699 DFFSR_43
*700 DFFSR_47
*701 DFFSR_41
*702 DFFSR_42
*703 DFFSR_48
*704 DFFSR_44
*705 DFFSR_45
*706 _120_
*707 INVX1_64
*708 DFFSR_54
*709 DFFSR_55
*710 DFFSR_50
*711 DFFSR_56
*712 DFFSR_51
*713 DFFSR_49
*714 DFFSR_53
*715 DFFSR_52
*716 _138_
*717 INVX1_73
*718 DFFSR_63
*719 DFFSR_62
*720 DFFSR_61
*721 DFFSR_64
*722 DFFSR_58
*723 DFFSR_59
*724 DFFSR_57
*725 DFFSR_60
*726 _156_
*727 INVX1_82
*728 DFFSR_69
*729 DFFSR_68
*730 DFFSR_71
*731 DFFSR_72
*732 DFFSR_70
*733 DFFSR_65
*734 DFFSR_67
*735 DFFSR_66
*736 _174_
*737 INVX1_91
*738 DFFSR_76
*739 DFFSR_79
*740 DFFSR_73
*741 DFFSR_78
*742 DFFSR_74
*743 DFFSR_75
*744 DFFSR_80
*745 DFFSR_77
*746 _192_
*747 INVX1_100
*748 DFFSR_88
*749 DFFSR_82
*750 DFFSR_86
*751 DFFSR_87
*752 DFFSR_85
*753 DFFSR_83
*754 DFFSR_81
*755 DFFSR_84
*756 _210_
*757 INVX1_109
*758 DFFSR_91
*759 DFFSR_92
*760 DFFSR_89
*761 DFFSR_95
*762 DFFSR_94
*763 DFFSR_93
*764 DFFSR_96
*765 DFFSR_90
*766 _235_
*767 INVX1_118
*768 DFFSR_99
*769 DFFSR_100
*770 DFFSR_97
*771 DFFSR_102
*772 DFFSR_104
*773 DFFSR_101
*774 DFFSR_103
*775 DFFSR_98
*776 _253_
*777 INVX1_127
*778 DFFSR_106
*779 DFFSR_110
*780 DFFSR_112
*781 DFFSR_111
*782 DFFSR_108
*783 DFFSR_107
*784 DFFSR_109
*785 DFFSR_105
*786 _271_
*787 INVX1_136
*788 DFFSR_115
*789 DFFSR_117
*790 DFFSR_113
*791 DFFSR_119
*792 DFFSR_114
*793 DFFSR_116
*794 DFFSR_120
*795 DFFSR_118
*796 _289_
*797 INVX1_145
*798 DFFSR_123
*799 DFFSR_127
*800 DFFSR_121
*801 DFFSR_128
*802 DFFSR_122
*803 DFFSR_124
*804 DFFSR_126
*805 DFFSR_125
*806 _307_
*807 INVX1_154
*808 DFFSR_136
*809 DFFSR_130
*810 DFFSR_129
*811 DFFSR_132
*812 DFFSR_131
*813 DFFSR_134
*814 DFFSR_133
*815 DFFSR_135
*816 _325_
*817 INVX1_163
*818 DFFSR_141
*819 DFFSR_140
*820 DFFSR_143
*821 DFFSR_144
*822 DFFSR_138
*823 DFFSR_139
*824 DFFSR_142
*825 DFFSR_137
*826 _403_
*827 INVX1_202
*828 DFFSR_162
*829 DFFSR_161
*830 DFFSR_165
*831 DFFSR_167
*832 DFFSR_164
*833 DFFSR_160
*834 DFFSR_163
*835 DFFSR_166
*836 _421_
*837 INVX1_211
*838 DFFSR_168
*839 DFFSR_172
*840 DFFSR_170
*841 DFFSR_171
*842 DFFSR_169
*843 DFFSR_174
*844 DFFSR_173
*845 DFFSR_175
*846 MAC_Adder[0]
*847 DFFPOSX1_21
*848 AND2X2_11
*849 NAND2X1_200
*850 INVX1_214
*851 NAND2X1_184
*852 NAND3X1_1
*853 NAND2X1_180
*854 NAND2X1_176
*855 NAND2X1_222
*856 MAC_Adder[4]
*857 DFFPOSX1_25
*858 AOI22X1_6
*859 NAND3X1_39
*860 NAND2X1_214
*861 NAND2X1_227
*862 NAND2X1_204
*863 AND2X2_6
*864 NAND3X1_21
*865 NAND2X1_194
*866 _915_
*867 NAND3X1_111
*868 OAI22X1_25
*869 OAI22X1_17
*870 OAI22X1_9
*871 OAI22X1_21
*872 OAI22X1_13
*873 OAI22X1_5
*874 OAI22X1_29
*875 OAI22X1_33
*876 _917_
*877 NAND3X1_112
*878 OAI22X1_28
*879 OAI22X1_20
*880 OAI22X1_36
*881 OAI22X1_29
*882 OAI22X1_9
*883 OAI22X1_21
*884 OAI22X1_13
*885 OAI22X1_5
*886 _921_
*887 NAND3X1_113
*888 OAI22X1_25
*889 OAI22X1_30
*890 OAI22X1_17
*891 OAI22X1_33
*892 OAI22X1_22
*893 OAI22X1_14
*894 OAI22X1_10
*895 OAI22X1_6
*896 _922_
*897 NAND3X1_114
*898 OAI22X1_30
*899 OAI22X1_26
*900 OAI22X1_18
*901 OAI22X1_34
*902 OAI22X1_22
*903 OAI22X1_14
*904 OAI22X1_11
*905 OAI22X1_6
*906 _804_
*907 NAND3X1_115
*908 OAI22X1_31
*909 OAI22X1_19
*910 OAI22X1_7
*911 OAI22X1_23
*912 OAI22X1_35
*913 OAI22X1_12
*914 OAI22X1_15
*915 OAI22X1_27
*916 _805_
*917 NAND3X1_116
*918 OAI22X1_27
*919 OAI22X1_35
*920 OAI22X1_12
*921 OAI22X1_15
*922 OAI22X1_7
*923 OAI22X1_23
*924 OAI22X1_31
*925 OAI22X1_19
*926 _809_
*927 NAND3X1_117
*928 OAI22X1_28
*929 OAI22X1_20
*930 OAI22X1_24
*931 OAI22X1_32
*932 OAI22X1_36
*933 OAI22X1_11
*934 OAI22X1_8
*935 OAI22X1_16
*936 _810_
*937 NAND3X1_118
*938 OAI22X1_32
*939 OAI22X1_26
*940 OAI22X1_18
*941 OAI22X1_24
*942 OAI22X1_8
*943 OAI22X1_16
*944 OAI22X1_10
*945 OAI22X1_34
*946 _1038_
*947 NAND3X1_119
*948 OAI22X1_45
*949 OAI22X1_53
*950 OAI22X1_61
*951 OAI22X1_37
*952 OAI22X1_49
*953 OAI22X1_65
*954 OAI22X1_41
*955 OAI22X1_57
*956 _1040_
*957 NAND3X1_120
*958 OAI22X1_45
*959 OAI22X1_53
*960 OAI22X1_61
*961 OAI22X1_37
*962 OAI22X1_68
*963 OAI22X1_60
*964 OAI22X1_41
*965 OAI22X1_52
*966 _1044_
*967 NAND3X1_121
*968 OAI22X1_42
*969 OAI22X1_65
*970 OAI22X1_54
*971 OAI22X1_46
*972 OAI22X1_38
*973 OAI22X1_49
*974 OAI22X1_62
*975 OAI22X1_57
*976 _1045_
*977 NAND3X1_122
*978 OAI22X1_58
*979 OAI22X1_50
*980 OAI22X1_43
*981 OAI22X1_62
*982 OAI22X1_38
*983 OAI22X1_54
*984 OAI22X1_46
*985 OAI22X1_66
*986 _927_
*987 NAND3X1_123
*988 OAI22X1_55
*989 OAI22X1_63
*990 OAI22X1_39
*991 OAI22X1_51
*992 OAI22X1_47
*993 OAI22X1_59
*994 OAI22X1_44
*995 OAI22X1_67
*996 _928_
*997 NAND3X1_124
*998 OAI22X1_55
*999 OAI22X1_63
*1000 OAI22X1_51
*1001 OAI22X1_47
*1002 OAI22X1_39
*1003 OAI22X1_59
*1004 OAI22X1_67
*1005 OAI22X1_44
*1006 _932_
*1007 NAND3X1_125
*1008 OAI22X1_60
*1009 OAI22X1_68
*1010 OAI22X1_64
*1011 OAI22X1_43
*1012 OAI22X1_52
*1013 OAI22X1_48
*1014 OAI22X1_56
*1015 OAI22X1_40
*1016 _933_
*1017 NAND3X1_126
*1018 OAI22X1_58
*1019 OAI22X1_42
*1020 OAI22X1_50
*1021 OAI22X1_64
*1022 OAI22X1_56
*1023 OAI22X1_40
*1024 OAI22X1_48
*1025 OAI22X1_66
*1026 _1077_
*1027 INVX1_414
*1028 DFFSR_179
*1029 DFFSR_176
*1030 DFFSR_180
*1031 DFFSR_177
*1032 DFFSR_182
*1033 DFFSR_178
*1034 DFFSR_181
*1035 DFFSR_183
*1036 _1095_
*1037 INVX1_423
*1038 DFFSR_186
*1039 DFFSR_185
*1040 DFFSR_191
*1041 DFFSR_187
*1042 DFFSR_189
*1043 DFFSR_188
*1044 DFFSR_184
*1045 DFFSR_190
*1046 rst_bF_buf1
*1047 BUFX2_9
*1048 INVX1_183
*1049 INVX1_181
*1050 INVX1_177
*1051 INVX1_91
*1052 INVX1_175
*1053 INVX1_185
*1054 INVX1_118
*1055 rst_bF_buf0
*1056 BUFX2_10
*1057 INVX1_10
*1058 INVX1_73
*1059 INVX1_28
*1060 INVX1_37
*1061 INVX1_46
*1062 AOI21X1_48
*1063 INVX1_163
*1064 MAC_ROM[2]
*1065 DFFSR_170
*1066 INVX1_205
*1067 NAND2X1_191
*1068 INVX1_256
*1069 NAND2X1_185
*1070 NAND2X1_180
*1071 NAND2X1_202
*1072 NAND2X1_214
*1073 MAC_ROM[3]
*1074 DFFSR_171
*1075 INVX1_206
*1076 NAND2X1_184
*1077 NAND2X1_190
*1078 INVX1_240
*1079 AND2X2_9
*1080 NAND2X1_227
*1081 NAND2X1_211
*1082 down_counter_contador[2]
*1083 DFFPOSX1_12
*1084 NAND3X1_125
*1085 NAND3X1_124
*1086 INVX1_332
*1087 NAND3X1_122
*1088 NAND3X1_126
*1089 INVX1_399
*1090 OAI21X1_240
*1091 MAC_clr_bF_buf3
*1092 BUFX2_1
*1093 OAI21X1_189
*1094 OAI21X1_160
*1095 NAND2X1_166
*1096 OAI21X1_166
*1097 OAI21X1_163
*1098 NAND2X1_163
*1099 rst
*1100 BUFX2_6
*1101 BUFX2_9
*1102 BUFX2_10
*1103 BUFX2_7
*1104 BUFX2_8
*1105 BUFX2_5
*1106 MAC_ROM[4]
*1107 DFFSR_172
*1108 INVX1_207
*1109 NAND2X1_213
*1110 NAND2X1_210
*1111 AND2X2_8
*1112 NAND2X1_189
*1113 INVX1_231
*1114 _446_
*1115 NAND3X1_17
*1116 INVX1_230
*1117 NAND3X1_19
*1118 AOI21X1_11
*1119 NAND3X1_18
*1120 OAI21X1_196
*1121 NOR3X1_1
*1122 MAC_clr_bF_buf2
*1123 BUFX2_2
*1124 INVX1_192
*1125 OAI21X1_162
*1126 NAND2X1_161
*1127 OAI21X1_161
*1128 OAI21X1_165
*1129 MAC_clr_bF_buf1
*1130 BUFX2_3
*1131 NAND3X1_19
*1132 NAND2X1_160
*1133 INVX1_212
*1134 OAI21X1_164
*1135 NAND2X1_164
*1136 MAC_clr_bF_buf0
*1137 BUFX2_4
*1138 NAND2X1_162
*1139 NAND2X1_165
*1140 OAI21X1_167
*1141 AOI21X1_37
*1142 NAND2X1_167
*1143 MAC_ROM[0_bF_buf3]
*1144 BUFX2_11
*1145 AND2X2_2
*1146 NAND2X1_187
*1147 AND2X2_10
*1148 AOI22X1_9
*1149 INVX1_203
*1150 MAC_ROM[0_bF_buf2]
*1151 BUFX2_12
*1152 AOI22X1_2
*1153 NAND3X1_38
*1154 AOI22X1_1
*1155 NAND2X1_224
*1156 NAND2X1_176
*1157 _746_
*1158 INVX1_215
*1159 OAI21X1_202
*1160 OAI22X1_1
*1161 OAI21X1_218
*1162 OAI21X1_222
*1163 NOR2X1_7
*1164 _494_
*1165 NAND3X1_31
*1166 NAND3X1_58
*1167 AOI21X1_19
*1168 AOI21X1_13
*1169 NAND2X1_197
*1170 NAND3X1_32
*1171 MAC_Adder[5]
*1172 DFFPOSX1_26
*1173 AOI22X1_9
*1174 AND2X2_10
*1175 NAND3X1_38
*1176 NAND2X1_205
*1177 INVX1_242
*1178 _531_
*1179 NAND2X1_204
*1180 NAND3X1_38
*1181 AND2X2_12
*1182 NOR2X1_8
*1183 OAI21X1_204
*1184 OAI22X1_2
*1185 _547_
*1186 NAND3X1_47
*1187 NAND3X1_62
*1188 OAI21X1_215
*1189 NAND3X1_73
*1190 AOI21X1_16
*1191 AOI22X1_8
*1192 _548_
*1193 NAND3X1_48
*1194 NAND3X1_62
*1195 NAND3X1_73
*1196 AOI21X1_16
*1197 AOI21X1_25
*1198 AOI22X1_8
*1199 _565_
*1200 NAND3X1_55
*1201 NAND3X1_86
*1202 NAND3X1_84
*1203 NAND3X1_59
*1204 AOI21X1_18
*1205 NAND2X1_208
*1206 _636_
*1207 NAND3X1_72
*1208 XOR2X1_8
*1209 INVX1_252
*1210 NAND3X1_82
*1211 NAND3X1_77
*1212 NAND3X1_107
*1213 MAC_clr
*1214 DFFSR_159
*1215 BUFX2_4
*1216 BUFX2_3
*1217 BUFX2_1
*1218 BUFX2_2
*1219 MAC_ROM[0]
*1220 DFFSR_168
*1221 BUFX2_14
*1222 BUFX2_13
*1223 BUFX2_11
*1224 BUFX2_12
*1225 MAC_ROM[0_bF_buf1]
*1226 BUFX2_13
*1227 NAND2X1_194
*1228 NAND2X1_181
*1229 INVX1_213
*1230 NAND2X1_205
*1231 MAC_ROM[0_bF_buf0]
*1232 BUFX2_14
*1233 AOI22X1_6
*1234 NAND3X1_21
*1235 AND2X2_5
*1236 NAND3X1_1
*1237 MAC_salida_correcta[3]
*1238 DFFPOSX1_5
*1239 AOI21X1_11
*1240 NAND3X1_18
*1241 INVX1_229
*1242 NAND2X1_163
*1243 MAC_salida_correcta[4]
*1244 DFFPOSX1_6
*1245 NAND3X1_32
*1246 AOI21X1_13
*1247 NAND2X1_164
*1248 INVX1_235
*1249 MAC_salida_correcta[5]
*1250 DFFPOSX1_7
*1251 INVX1_243
*1252 NAND3X1_59
*1253 AOI21X1_18
*1254 NAND2X1_165
*1255 MAC_salida_correcta[6]
*1256 DFFPOSX1_8
*1257 NAND3X1_85
*1258 AOI21X1_36
*1259 INVX1_250
*1260 NAND2X1_166
*1261 MAC_ROM[5]
*1262 DFFSR_173
*1263 INVX1_208
*1264 NAND2X1_228
*1265 INVX1_246
*1266 NAND2X1_200
*1267 _685_
*1268 NAND2X1_176
*1269 NOR2X1_4
*1270 OAI21X1_176
*1271 OAI21X1_179
*1272 XOR2X1_1
*1273 _749_
*1274 NAND2X1_178
*1275 NOR2X1_3
*1276 NOR2X1_4
*1277 OAI21X1_179
*1278 OAI21X1_176
*1279 _771_
*1280 NAND3X1_5
*1281 AOI21X1_1
*1282 NAND3X1_6
*1283 NAND2X1_183
*1284 INVX1_223
*1285 _784_
*1286 NAND2X1_184
*1287 OAI21X1_191
*1288 INVX1_224
*1289 OAI21X1_194
*1290 NAND3X1_16
*1291 _787_
*1292 NAND2X1_185
*1293 NAND3X1_8
*1294 NAND3X1_10
*1295 OAI21X1_192
*1296 INVX1_225
*1297 _790_
*1298 AND2X2_5
*1299 NAND2X1_186
*1300 OAI21X1_186
*1301 AOI22X1_5
*1302 NAND2X1_192
*1303 _792_
*1304 INVX1_226
*1305 OAI21X1_203
*1306 OAI21X1_201
*1307 OAI21X1_186
*1308 OAI21X1_185
*1309 _458_
*1310 OAI21X1_191
*1311 NAND3X1_27
*1312 OAI21X1_195
*1313 INVX1_233
*1314 OAI21X1_200
*1315 _461_
*1316 NAND2X1_191
*1317 OAI22X1_2
*1318 NAND3X1_22
*1319 INVX1_232
*1320 NAND3X1_24
*1321 _483_
*1322 AOI22X1_4
*1323 OAI21X1_196
*1324 NOR3X1_1
*1325 NAND3X1_51
*1326 NAND3X1_57
*1327 _490_
*1328 NAND3X1_29
*1329 NAND3X1_54
*1330 AOI21X1_20
*1331 NAND3X1_56
*1332 NAND3X1_31
*1333 _512_
*1334 NAND2X1_199
*1335 NAND3X1_52
*1336 OAI21X1_213
*1337 INVX1_238
*1338 NAND3X1_50
*1339 _526_
*1340 NAND2X1_202
*1341 NAND3X1_40
*1342 INVX1_241
*1343 NAND3X1_42
*1344 OAI21X1_220
*1345 _530_
*1346 INVX1_242
*1347 OAI21X1_204
*1348 OAI21X1_231
*1349 NOR2X1_10
*1350 OAI21X1_233
*1351 _535_
*1352 NAND2X1_205
*1353 AND2X2_12
*1354 NOR2X1_8
*1355 NOR2X1_9
*1356 NAND3X1_39
*1357 _552_
*1358 NAND2X1_206
*1359 OAI21X1_212
*1360 AOI21X1_15
*1361 NAND3X1_73
*1362 OAI21X1_215
*1363 _554_
*1364 NAND2X1_207
*1365 AOI21X1_25
*1366 AOI21X1_16
*1367 NAND3X1_62
*1368 OAI21X1_227
*1369 _606_
*1370 NAND2X1_214
*1371 OAI21X1_232
*1372 OAI21X1_219
*1373 INVX1_248
*1374 NAND3X1_66
*1375 _609_
*1376 AOI22X1_9
*1377 OAI21X1_219
*1378 OAI21X1_221
*1379 INVX1_249
*1380 OAI21X1_232
*1381 _629_
*1382 AOI22X1_12
*1383 OAI21X1_226
*1384 OAI21X1_224
*1385 NOR2X1_11
*1386 OR2X2_2
*1387 _648_
*1388 NAND3X1_81
*1389 NAND2X1_219
*1390 AOI21X1_36
*1391 NAND2X1_217
*1392 NAND3X1_85
*1393 _913_
*1394 INVX1_264
*1395 NAND3X1_112
*1396 NAND3X1_111
*1397 NAND3X1_116
*1398 NAND3X1_118
*1399 _914_
*1400 INVX1_265
*1401 NAND3X1_111
*1402 NAND3X1_112
*1403 NAND3X1_113
*1404 NAND3X1_115
*1405 _916_
*1406 INVX1_266
*1407 NAND3X1_112
*1408 NAND3X1_113
*1409 NAND3X1_114
*1410 NAND3X1_116
*1411 _1036_
*1412 INVX1_331
*1413 NAND3X1_126
*1414 NAND3X1_119
*1415 NAND3X1_120
*1416 NAND3X1_124
*1417 _1037_
*1418 INVX1_332
*1419 NAND3X1_120
*1420 NAND3X1_123
*1421 NAND3X1_121
*1422 NAND3X1_119
*1423 _1039_
*1424 INVX1_333
*1425 NAND3X1_120
*1426 NAND3X1_124
*1427 NAND3X1_122
*1428 NAND3X1_121
*1429 generador_clock_counter[0]
*1430 DFFPOSX1_13
*1431 NAND2X1_251
*1432 OAI21X1_241
*1433 AND2X2_14
*1434 NOR2X1_44
*1435 _1132_
*1436 NAND2X1_277
*1437 NAND2X1_278
*1438 OAI21X1_261
*1439 INVX1_431
*1440 AND2X2_16
*1441 asr1_cables[1][0]
*1442 DFFSR_1
*1443 INVX1_2
*1444 NAND2X1_9
*1445 INVX1_262
*1446 asr1_cables[1][1]
*1447 DFFSR_2
*1448 INVX1_3
*1449 NAND2X1_10
*1450 INVX1_273
*1451 asr1_cables[1][2]
*1452 DFFSR_3
*1453 INVX1_4
*1454 NAND2X1_11
*1455 INVX1_281
*1456 asr1_cables[1][3]
*1457 DFFSR_4
*1458 INVX1_5
*1459 NAND2X1_12
*1460 INVX1_296
*1461 asr1_cables[1][4]
*1462 DFFSR_5
*1463 INVX1_6
*1464 INVX1_297
*1465 NAND2X1_13
*1466 asr1_cables[1][5]
*1467 DFFSR_6
*1468 INVX1_312
*1469 INVX1_7
*1470 NAND2X1_14
*1471 asr1_cables[1][6]
*1472 DFFSR_7
*1473 INVX1_8
*1474 INVX1_313
*1475 NAND2X1_15
*1476 asr1_cables[1][7]
*1477 DFFSR_8
*1478 INVX1_9
*1479 NAND2X1_16
*1480 INVX1_328
*1481 asr1_cables[2][0]
*1482 DFFSR_9
*1483 INVX1_11
*1484 INVX1_263
*1485 NAND2X1_17
*1486 asr1_cables[2][1]
*1487 DFFSR_10
*1488 INVX1_12
*1489 INVX1_274
*1490 NAND2X1_18
*1491 asr1_cables[2][2]
*1492 DFFSR_11
*1493 INVX1_13
*1494 INVX1_282
*1495 NAND2X1_19
*1496 asr1_cables[2][3]
*1497 DFFSR_12
*1498 NAND2X1_20
*1499 INVX1_290
*1500 INVX1_14
*1501 asr1_cables[2][4]
*1502 DFFSR_13
*1503 INVX1_15
*1504 NAND2X1_21
*1505 INVX1_298
*1506 asr1_cables[2][5]
*1507 DFFSR_14
*1508 INVX1_16
*1509 NAND2X1_22
*1510 INVX1_306
*1511 asr1_cables[2][6]
*1512 DFFSR_15
*1513 INVX1_314
*1514 INVX1_17
*1515 NAND2X1_23
*1516 asr1_cables[2][7]
*1517 DFFSR_16
*1518 INVX1_18
*1519 INVX1_322
*1520 NAND2X1_24
*1521 asr1_cables[3][0]
*1522 DFFSR_17
*1523 INVX1_20
*1524 NAND2X1_25
*1525 INVX1_268
*1526 asr1_cables[3][1]
*1527 DFFSR_18
*1528 INVX1_21
*1529 INVX1_276
*1530 NAND2X1_26
*1531 asr1_cables[3][2]
*1532 DFFSR_19
*1533 INVX1_22
*1534 NAND2X1_27
*1535 INVX1_284
*1536 asr1_cables[3][3]
*1537 DFFSR_20
*1538 INVX1_23
*1539 NAND2X1_28
*1540 INVX1_289
*1541 asr1_cables[3][4]
*1542 DFFSR_21
*1543 NAND2X1_29
*1544 INVX1_24
*1545 INVX1_300
*1546 asr1_cables[3][5]
*1547 DFFSR_22
*1548 INVX1_305
*1549 NAND2X1_30
*1550 INVX1_25
*1551 asr1_cables[3][6]
*1552 DFFSR_23
*1553 INVX1_316
*1554 NAND2X1_31
*1555 INVX1_26
*1556 asr1_cables[3][7]
*1557 DFFSR_24
*1558 INVX1_27
*1559 INVX1_321
*1560 NAND2X1_32
*1561 asr1_cables[4]
*1562 DFFSR_25
*1563 INVX1_29
*1564 INVX1_270
*1565 NAND2X1_33
*1566 _76_
*1567 DFFSR_26
*1568 NAND2X1_34
*1569 INVX1_280
*1570 INVX1_30
*1571 _82_
*1572 DFFSR_27
*1573 INVX1_31
*1574 INVX1_286
*1575 NAND2X1_35
*1576 _77_
*1577 DFFSR_28
*1578 INVX1_32
*1579 INVX1_294
*1580 NAND2X1_36
*1581 _78_
*1582 DFFSR_29
*1583 INVX1_33
*1584 INVX1_302
*1585 NAND2X1_37
*1586 _79_
*1587 DFFSR_30
*1588 INVX1_34
*1589 NAND2X1_38
*1590 INVX1_310
*1591 _80_
*1592 DFFSR_31
*1593 INVX1_35
*1594 NAND2X1_39
*1595 INVX1_318
*1596 _81_
*1597 DFFSR_32
*1598 NAND2X1_40
*1599 INVX1_326
*1600 INVX1_36
*1601 asr1_cables[5][0]
*1602 DFFSR_33
*1603 INVX1_38
*1604 NAND2X1_41
*1605 INVX1_269
*1606 asr1_cables[5][1]
*1607 DFFSR_34
*1608 INVX1_279
*1609 NAND2X1_42
*1610 INVX1_39
*1611 asr1_cables[5][2]
*1612 DFFSR_35
*1613 INVX1_40
*1614 INVX1_285
*1615 NAND2X1_43
*1616 asr1_cables[5][3]
*1617 DFFSR_36
*1618 NAND2X1_44
*1619 INVX1_41
*1620 INVX1_293
*1621 asr1_cables[5][4]
*1622 DFFSR_37
*1623 INVX1_42
*1624 NAND2X1_45
*1625 INVX1_301
*1626 asr1_cables[5][5]
*1627 DFFSR_38
*1628 INVX1_43
*1629 INVX1_309
*1630 NAND2X1_46
*1631 asr1_cables[5][6]
*1632 DFFSR_39
*1633 INVX1_44
*1634 NAND2X1_47
*1635 INVX1_317
*1636 asr1_cables[5][7]
*1637 DFFSR_40
*1638 INVX1_325
*1639 NAND2X1_48
*1640 INVX1_45
*1641 asr1_cables[6][0]
*1642 DFFSR_41
*1643 INVX1_272
*1644 NAND2X1_49
*1645 INVX1_47
*1646 asr1_cables[6][1]
*1647 DFFSR_42
*1648 INVX1_275
*1649 INVX1_48
*1650 NAND2X1_50
*1651 asr1_cables[6][2]
*1652 DFFSR_43
*1653 INVX1_49
*1654 INVX1_288
*1655 NAND2X1_51
*1656 asr1_cables[6][3]
*1657 DFFSR_44
*1658 INVX1_50
*1659 NAND2X1_52
*1660 INVX1_292
*1661 asr1_cables[6][4]
*1662 DFFSR_45
*1663 INVX1_51
*1664 NAND2X1_53
*1665 INVX1_304
*1666 asr1_cables[6][5]
*1667 DFFSR_46
*1668 INVX1_308
*1669 NAND2X1_54
*1670 INVX1_52
*1671 asr1_cables[6][6]
*1672 DFFSR_47
*1673 NAND2X1_55
*1674 INVX1_320
*1675 INVX1_53
*1676 asr1_cables[6][7]
*1677 DFFSR_48
*1678 INVX1_324
*1679 INVX1_54
*1680 NAND2X1_56
*1681 asr1_cables[7][0]
*1682 DFFSR_49
*1683 INVX1_56
*1684 NAND2X1_57
*1685 INVX1_267
*1686 asr1_cables[7][1]
*1687 DFFSR_50
*1688 NAND2X1_58
*1689 INVX1_277
*1690 INVX1_57
*1691 asr1_cables[7][2]
*1692 DFFSR_51
*1693 NAND2X1_59
*1694 INVX1_283
*1695 INVX1_58
*1696 asr1_cables[7][3]
*1697 DFFSR_52
*1698 INVX1_59
*1699 INVX1_291
*1700 NAND2X1_60
*1701 asr1_cables[7][4]
*1702 DFFSR_53
*1703 INVX1_60
*1704 INVX1_299
*1705 NAND2X1_61
*1706 asr1_cables[7][5]
*1707 DFFSR_54
*1708 INVX1_307
*1709 NAND2X1_62
*1710 INVX1_61
*1711 asr1_cables[7][6]
*1712 DFFSR_55
*1713 INVX1_62
*1714 INVX1_315
*1715 NAND2X1_63
*1716 asr1_cables[7][7]
*1717 DFFSR_56
*1718 INVX1_63
*1719 INVX1_323
*1720 NAND2X1_64
*1721 asr2_cables[1][0]
*1722 DFFSR_65
*1723 INVX1_74
*1724 NAND2X1_73
*1725 INVX1_329
*1726 asr2_cables[1][1]
*1727 DFFSR_66
*1728 NAND2X1_74
*1729 INVX1_75
*1730 INVX1_340
*1731 asr2_cables[1][2]
*1732 DFFSR_67
*1733 INVX1_76
*1734 NAND2X1_75
*1735 INVX1_348
*1736 asr2_cables[1][3]
*1737 DFFSR_68
*1738 NAND2X1_76
*1739 INVX1_363
*1740 INVX1_77
*1741 asr2_cables[1][4]
*1742 DFFSR_69
*1743 INVX1_78
*1744 INVX1_364
*1745 NAND2X1_77
*1746 asr2_cables[1][5]
*1747 DFFSR_70
*1748 INVX1_79
*1749 INVX1_379
*1750 NAND2X1_78
*1751 asr2_cables[1][6]
*1752 DFFSR_71
*1753 INVX1_80
*1754 NAND2X1_79
*1755 INVX1_380
*1756 asr2_cables[1][7]
*1757 DFFSR_72
*1758 INVX1_81
*1759 NAND2X1_80
*1760 INVX1_395
*1761 asr2_cables[2][0]
*1762 DFFSR_73
*1763 INVX1_83
*1764 INVX1_330
*1765 NAND2X1_81
*1766 asr2_cables[2][1]
*1767 DFFSR_74
*1768 INVX1_84
*1769 NAND2X1_82
*1770 INVX1_341
*1771 asr2_cables[2][2]
*1772 DFFSR_75
*1773 INVX1_85
*1774 INVX1_349
*1775 NAND2X1_83
*1776 asr2_cables[2][3]
*1777 DFFSR_76
*1778 INVX1_86
*1779 INVX1_357
*1780 NAND2X1_84
*1781 asr2_cables[2][4]
*1782 DFFSR_77
*1783 INVX1_87
*1784 INVX1_365
*1785 NAND2X1_85
*1786 asr2_cables[2][5]
*1787 DFFSR_78
*1788 INVX1_373
*1789 INVX1_88
*1790 NAND2X1_86
*1791 asr2_cables[2][6]
*1792 DFFSR_79
*1793 INVX1_381
*1794 INVX1_89
*1795 NAND2X1_87
*1796 asr2_cables[2][7]
*1797 DFFSR_80
*1798 NAND2X1_88
*1799 INVX1_389
*1800 INVX1_90
*1801 asr2_cables[3][0]
*1802 DFFSR_81
*1803 INVX1_335
*1804 INVX1_92
*1805 NAND2X1_89
*1806 asr2_cables[3][1]
*1807 DFFSR_82
*1808 INVX1_93
*1809 NAND2X1_90
*1810 INVX1_343
*1811 asr2_cables[3][2]
*1812 DFFSR_83
*1813 INVX1_94
*1814 INVX1_351
*1815 NAND2X1_91
*1816 asr2_cables[3][3]
*1817 DFFSR_84
*1818 INVX1_356
*1819 NAND2X1_92
*1820 INVX1_95
*1821 asr2_cables[3][4]
*1822 DFFSR_85
*1823 INVX1_96
*1824 NAND2X1_93
*1825 INVX1_367
*1826 asr2_cables[3][5]
*1827 DFFSR_86
*1828 INVX1_97
*1829 NAND2X1_94
*1830 INVX1_372
*1831 asr2_cables[3][6]
*1832 DFFSR_87
*1833 INVX1_98
*1834 INVX1_383
*1835 NAND2X1_95
*1836 asr2_cables[3][7]
*1837 DFFSR_88
*1838 INVX1_388
*1839 INVX1_99
*1840 NAND2X1_96
*1841 asr2_cables[4]
*1842 DFFSR_89
*1843 NAND2X1_97
*1844 INVX1_337
*1845 INVX1_101
*1846 _227_
*1847 DFFSR_90
*1848 NAND2X1_98
*1849 INVX1_102
*1850 INVX1_347
*1851 _233_
*1852 DFFSR_91
*1853 NAND2X1_99